* XSpice netlist created from SPICE and liberty sources by spi2xspice.py
*SPICE netlist created from BLIF module cla_60bit by blif2BSpice
.subckt cla_60bit a_vdd a_gnd a_i_add1_0_ a_i_add1_1_ a_i_add1_2_ a_i_add1_3_ a_i_add1_4_ a_i_add1_5_ a_i_add1_6_ a_i_add1_7_ a_i_add1_8_ a_i_add1_9_ a_i_add1_10_ a_i_add1_11_ a_i_add1_12_ a_i_add1_13_ a_i_add1_14_ a_i_add1_15_ a_i_add1_16_ a_i_add1_17_ a_i_add1_18_ a_i_add1_19_ a_i_add1_20_ a_i_add1_21_ a_i_add1_22_ a_i_add1_23_ a_i_add1_24_ a_i_add1_25_ a_i_add1_26_ a_i_add1_27_ a_i_add1_28_ a_i_add1_29_ a_i_add1_30_ a_i_add1_31_ a_i_add1_32_ a_i_add1_33_ a_i_add1_34_ a_i_add1_35_ a_i_add1_36_ a_i_add1_37_ a_i_add1_38_ a_i_add1_39_ a_i_add1_40_ a_i_add1_41_ a_i_add1_42_ a_i_add1_43_ a_i_add1_44_ a_i_add1_45_ a_i_add1_46_ a_i_add1_47_ a_i_add1_48_ a_i_add1_49_ a_i_add1_50_ a_i_add1_51_ a_i_add1_52_ a_i_add1_53_ a_i_add1_54_ a_i_add1_55_ a_i_add1_56_ a_i_add1_57_ a_i_add1_58_ a_i_add1_59_ a_i_add2_0_ a_i_add2_1_ a_i_add2_2_ a_i_add2_3_ a_i_add2_4_ a_i_add2_5_ a_i_add2_6_ a_i_add2_7_ a_i_add2_8_ a_i_add2_9_ a_i_add2_10_ a_i_add2_11_ a_i_add2_12_ a_i_add2_13_ a_i_add2_14_ a_i_add2_15_ a_i_add2_16_ a_i_add2_17_ a_i_add2_18_ a_i_add2_19_ a_i_add2_20_ a_i_add2_21_ a_i_add2_22_ a_i_add2_23_ a_i_add2_24_ a_i_add2_25_ a_i_add2_26_ a_i_add2_27_ a_i_add2_28_ a_i_add2_29_ a_i_add2_30_ a_i_add2_31_ a_i_add2_32_ a_i_add2_33_ a_i_add2_34_ a_i_add2_35_ a_i_add2_36_ a_i_add2_37_ a_i_add2_38_ a_i_add2_39_ a_i_add2_40_ a_i_add2_41_ a_i_add2_42_ a_i_add2_43_ a_i_add2_44_ a_i_add2_45_ a_i_add2_46_ a_i_add2_47_ a_i_add2_48_ a_i_add2_49_ a_i_add2_50_ a_i_add2_51_ a_i_add2_52_ a_i_add2_53_ a_i_add2_54_ a_i_add2_55_ a_i_add2_56_ a_i_add2_57_ a_i_add2_58_ a_i_add2_59_ a_o_result_0_ a_o_result_1_ a_o_result_2_ a_o_result_3_ a_o_result_4_ a_o_result_5_ a_o_result_6_ a_o_result_7_ a_o_result_8_ a_o_result_9_ a_o_result_10_ a_o_result_11_ a_o_result_12_ a_o_result_13_ a_o_result_14_ a_o_result_15_ a_o_result_16_ a_o_result_17_ a_o_result_18_ a_o_result_19_ a_o_result_20_ a_o_result_21_ a_o_result_22_ a_o_result_23_ a_o_result_24_ a_o_result_25_ a_o_result_26_ a_o_result_27_ a_o_result_28_ a_o_result_29_ a_o_result_30_ a_o_result_31_ a_o_result_32_ a_o_result_33_ a_o_result_34_ a_o_result_35_ a_o_result_36_ a_o_result_37_ a_o_result_38_ a_o_result_39_ a_o_result_40_ a_o_result_41_ a_o_result_42_ a_o_result_43_ a_o_result_44_ a_o_result_45_ a_o_result_46_ a_o_result_47_ a_o_result_48_ a_o_result_49_ a_o_result_50_ a_o_result_51_ a_o_result_52_ a_o_result_53_ a_o_result_54_ a_o_result_55_ a_o_result_56_ a_o_result_57_ a_o_result_58_ a_o_result_59_ a_o_result_60_
ANAND3X1_1 [_259_ _261_ _254_] _262_ d_lut_NAND3X1
AOAI21X1_1 [_256_ _257_ _262_] w_C_44_ d_lut_OAI21X1
ANOR2X1_1 [_256_ _257_] _263_ d_lut_NOR2X1
AINVX1_1 [_263_] _264_ d_lut_INVX1
AAND2X2_1 [i_add2_44_ i_add1_44_] _265_ d_lut_AND2X2
AINVX1_2 [_265_] _266_ d_lut_INVX1
ANAND3X1_2 [_264_ _266_ _262_] _267_ d_lut_NAND3X1
AOAI21X1_2 [i_add2_44_ i_add1_44_ _267_] _268_ d_lut_OAI21X1
AINVX1_3 [_268_] w_C_45_ d_lut_INVX1
AINVX1_4 [i_add2_45_] _269_ d_lut_INVX1
AINVX1_5 [i_add1_45_] _270_ d_lut_INVX1
ANOR2X1_2 [i_add2_44_ i_add1_44_] _271_ d_lut_NOR2X1
AINVX1_6 [_271_] _272_ d_lut_INVX1
ANOR2X1_3 [i_add2_45_ i_add1_45_] _273_ d_lut_NOR2X1
AINVX1_7 [_273_] _274_ d_lut_INVX1
ANAND3X1_3 [_272_ _274_ _267_] _275_ d_lut_NAND3X1
AOAI21X1_3 [_269_ _270_ _275_] w_C_46_ d_lut_OAI21X1
ANOR2X1_4 [_269_ _270_] _276_ d_lut_NOR2X1
AINVX1_8 [_276_] _277_ d_lut_INVX1
AAND2X2_2 [i_add2_46_ i_add1_46_] _278_ d_lut_AND2X2
AINVX1_9 [_278_] _279_ d_lut_INVX1
ANAND3X1_4 [_277_ _279_ _275_] _280_ d_lut_NAND3X1
AOAI21X1_4 [i_add2_46_ i_add1_46_ _280_] _281_ d_lut_OAI21X1
AINVX1_10 [_281_] w_C_47_ d_lut_INVX1
AINVX1_11 [i_add2_47_] _282_ d_lut_INVX1
AINVX1_12 [i_add1_47_] _283_ d_lut_INVX1
ANOR2X1_5 [i_add2_46_ i_add1_46_] _284_ d_lut_NOR2X1
AINVX1_13 [_284_] _285_ d_lut_INVX1
ANOR2X1_6 [i_add2_47_ i_add1_47_] _286_ d_lut_NOR2X1
AINVX1_14 [_286_] _287_ d_lut_INVX1
ANAND3X1_5 [_285_ _287_ _280_] _288_ d_lut_NAND3X1
AOAI21X1_5 [_282_ _283_ _288_] w_C_48_ d_lut_OAI21X1
ANOR2X1_7 [i_add2_48_ i_add1_48_] _289_ d_lut_NOR2X1
AINVX1_15 [_289_] _290_ d_lut_INVX1
ANOR2X1_8 [_282_ _283_] _291_ d_lut_NOR2X1
AINVX1_16 [_291_] _292_ d_lut_INVX1
ANAND2X1_1 [i_add2_48_ i_add1_48_] _293_ d_lut_NAND2X1
ANAND3X1_6 [_292_ _293_ _288_] _294_ d_lut_NAND3X1
AAND2X2_3 [_294_ _290_] w_C_49_ d_lut_AND2X2
AINVX1_17 [i_add2_49_] _295_ d_lut_INVX1
AINVX1_18 [i_add1_49_] _296_ d_lut_INVX1
ANAND2X1_2 [_295_ _296_] _297_ d_lut_NAND2X1
ANAND3X1_7 [_290_ _297_ _294_] _298_ d_lut_NAND3X1
AOAI21X1_6 [_295_ _296_ _298_] w_C_50_ d_lut_OAI21X1
AINVX1_19 [i_add2_50_] _299_ d_lut_INVX1
AINVX1_20 [i_add1_50_] _300_ d_lut_INVX1
AOAI21X1_7 [i_add2_50_ i_add1_50_ w_C_50_] _301_ d_lut_OAI21X1
AOAI21X1_8 [_299_ _300_ _301_] w_C_51_ d_lut_OAI21X1
AINVX1_21 [i_add2_51_] _302_ d_lut_INVX1
AINVX1_22 [i_add1_51_] _303_ d_lut_INVX1
ANOR2X1_9 [_302_ _303_] _304_ d_lut_NOR2X1
AOR2X2_1 [w_C_51_ _304_] _305_ d_lut_OR2X2
AOAI21X1_9 [i_add2_51_ i_add1_51_ _305_] _306_ d_lut_OAI21X1
AINVX1_23 [_306_] w_C_52_ d_lut_INVX1
ANAND2X1_3 [i_add2_52_ i_add1_52_] _307_ d_lut_NAND2X1
ANOR2X1_10 [i_add2_52_ i_add1_52_] _308_ d_lut_NOR2X1
AOAI21X1_10 [_308_ _306_ _307_] w_C_53_ d_lut_OAI21X1
AINVX1_24 [i_add2_53_] _309_ d_lut_INVX1
AINVX1_25 [i_add1_53_] _310_ d_lut_INVX1
AINVX1_26 [_308_] _311_ d_lut_INVX1
AINVX1_27 [_304_] _312_ d_lut_INVX1
ANAND2X1_4 [_299_ _300_] _313_ d_lut_NAND2X1
ANAND2X1_5 [i_add2_49_ i_add1_49_] _314_ d_lut_NAND2X1
ANAND2X1_6 [i_add2_50_ i_add1_50_] _315_ d_lut_NAND2X1
ANAND3X1_8 [_314_ _315_ _298_] _316_ d_lut_NAND3X1
ANAND2X1_7 [_302_ _303_] _317_ d_lut_NAND2X1
ANAND3X1_9 [_313_ _317_ _316_] _318_ d_lut_NAND3X1
ANAND3X1_10 [_312_ _307_ _318_] _319_ d_lut_NAND3X1
ANAND2X1_8 [_309_ _310_] _320_ d_lut_NAND2X1
ANAND3X1_11 [_311_ _320_ _319_] _321_ d_lut_NAND3X1
AOAI21X1_11 [_309_ _310_ _321_] w_C_54_ d_lut_OAI21X1
AINVX1_28 [i_add2_54_] _322_ d_lut_INVX1
AINVX1_29 [i_add1_54_] _323_ d_lut_INVX1
AOAI21X1_12 [i_add2_54_ i_add1_54_ w_C_54_] _324_ d_lut_OAI21X1
AOAI21X1_13 [_322_ _323_ _324_] w_C_55_ d_lut_OAI21X1
ANOR2X1_11 [_322_ _323_] _325_ d_lut_NOR2X1
AINVX1_30 [_325_] _326_ d_lut_INVX1
AAND2X2_4 [i_add2_55_ i_add1_55_] _327_ d_lut_AND2X2
AINVX1_31 [_327_] _328_ d_lut_INVX1
ANAND3X1_12 [_326_ _328_ _324_] _329_ d_lut_NAND3X1
AOAI21X1_14 [i_add2_55_ i_add1_55_ _329_] _330_ d_lut_OAI21X1
AINVX1_32 [_330_] w_C_56_ d_lut_INVX1
ANAND2X1_9 [i_add2_56_ i_add1_56_] _331_ d_lut_NAND2X1
ANOR2X1_12 [i_add2_56_ i_add1_56_] _332_ d_lut_NOR2X1
AOAI21X1_15 [_332_ _330_ _331_] w_C_57_ d_lut_OAI21X1
ANAND2X1_10 [i_add2_57_ i_add1_57_] _333_ d_lut_NAND2X1
AINVX1_33 [_332_] _334_ d_lut_INVX1
ANOR2X1_13 [i_add2_54_ i_add1_54_] _335_ d_lut_NOR2X1
AINVX1_34 [_335_] _336_ d_lut_INVX1
ANOR2X1_14 [_309_ _310_] _337_ d_lut_NOR2X1
AINVX1_35 [_337_] _338_ d_lut_INVX1
ANAND3X1_13 [_338_ _326_ _321_] _339_ d_lut_NAND3X1
ANOR2X1_15 [i_add2_55_ i_add1_55_] _340_ d_lut_NOR2X1
AINVX1_36 [_340_] _341_ d_lut_INVX1
ANAND3X1_14 [_336_ _341_ _339_] _342_ d_lut_NAND3X1
ANAND3X1_15 [_328_ _331_ _342_] _343_ d_lut_NAND3X1
AOR2X2_2 [i_add2_57_ i_add1_57_] _344_ d_lut_OR2X2
ANAND3X1_16 [_334_ _344_ _343_] _345_ d_lut_NAND3X1
ANAND2X1_11 [_333_ _345_] w_C_58_ d_lut_NAND2X1
AOR2X2_3 [i_add2_58_ i_add1_58_] _346_ d_lut_OR2X2
ANAND2X1_12 [i_add2_58_ i_add1_58_] _347_ d_lut_NAND2X1
ANAND3X1_17 [_333_ _347_ _345_] _348_ d_lut_NAND3X1
AAND2X2_5 [_348_ _346_] w_C_59_ d_lut_AND2X2
ANAND2X1_13 [i_add2_59_ i_add1_59_] _349_ d_lut_NAND2X1
AOR2X2_4 [i_add2_59_ i_add1_59_] _350_ d_lut_OR2X2
ANAND3X1_18 [_346_ _350_ _348_] _351_ d_lut_NAND3X1
ANAND2X1_14 [_349_ _351_] w_C_60_ d_lut_NAND2X1
ANAND2X1_15 [i_add2_0_ i_add1_0_] _0_ d_lut_NAND2X1
AINVX1_37 [_0_] w_C_1_ d_lut_INVX1
ANOR2X1_16 [i_add2_1_ i_add1_1_] _1_ d_lut_NOR2X1
AAOI22X1_1 [i_add2_0_ i_add1_0_ i_add2_1_ i_add1_1_] _2_ d_lut_AOI22X1
ANOR2X1_17 [_1_ _2_] w_C_2_ d_lut_NOR2X1
AINVX1_38 [i_add2_2_] _3_ d_lut_INVX1
AINVX1_39 [i_add1_2_] _4_ d_lut_INVX1
ANAND2X1_16 [_3_ _4_] _5_ d_lut_NAND2X1
ANAND2X1_17 [i_add2_2_ i_add1_2_] _6_ d_lut_NAND2X1
AOAI21X1_16 [_1_ _2_ _6_] _7_ d_lut_OAI21X1
AAND2X2_6 [_7_ _5_] w_C_3_ d_lut_AND2X2
ANAND2X1_18 [i_add2_3_ i_add1_3_] _8_ d_lut_NAND2X1
AOR2X2_5 [i_add2_3_ i_add1_3_] _9_ d_lut_OR2X2
ANAND3X1_19 [_5_ _9_ _7_] _10_ d_lut_NAND3X1
ANAND2X1_19 [_8_ _10_] w_C_4_ d_lut_NAND2X1
ANOR2X1_18 [i_add2_4_ i_add1_4_] _11_ d_lut_NOR2X1
AINVX1_40 [_11_] _12_ d_lut_INVX1
ANAND2X1_20 [i_add2_4_ i_add1_4_] _13_ d_lut_NAND2X1
ANAND3X1_20 [_8_ _13_ _10_] _14_ d_lut_NAND3X1
AAND2X2_7 [_14_ _12_] w_C_5_ d_lut_AND2X2
AINVX1_41 [i_add2_5_] _15_ d_lut_INVX1
AINVX1_42 [i_add1_5_] _16_ d_lut_INVX1
ANOR2X1_19 [i_add2_5_ i_add1_5_] _17_ d_lut_NOR2X1
AINVX1_43 [_17_] _18_ d_lut_INVX1
ANAND3X1_21 [_12_ _18_ _14_] _19_ d_lut_NAND3X1
AOAI21X1_17 [_15_ _16_ _19_] w_C_6_ d_lut_OAI21X1
ANOR2X1_20 [i_add2_6_ i_add1_6_] _20_ d_lut_NOR2X1
AINVX1_44 [_20_] _21_ d_lut_INVX1
ANOR2X1_21 [_15_ _16_] _22_ d_lut_NOR2X1
AINVX1_45 [_22_] _23_ d_lut_INVX1
AAND2X2_8 [i_add2_6_ i_add1_6_] _24_ d_lut_AND2X2
AINVX1_46 [_24_] _25_ d_lut_INVX1
ANAND3X1_22 [_23_ _25_ _19_] _26_ d_lut_NAND3X1
AAND2X2_9 [_26_ _21_] w_C_7_ d_lut_AND2X2
AAND2X2_10 [i_add2_7_ i_add1_7_] _27_ d_lut_AND2X2
AINVX1_47 [_27_] _28_ d_lut_INVX1
ANOR2X1_22 [i_add2_7_ i_add1_7_] _29_ d_lut_NOR2X1
AINVX1_48 [_29_] _30_ d_lut_INVX1
ANAND3X1_23 [_21_ _30_ _26_] _31_ d_lut_NAND3X1
AAND2X2_11 [_31_ _28_] _32_ d_lut_AND2X2
AINVX1_49 [_32_] w_C_8_ d_lut_INVX1
AAND2X2_12 [i_add2_8_ i_add1_8_] _33_ d_lut_AND2X2
AINVX1_50 [_33_] _34_ d_lut_INVX1
ANOR2X1_23 [i_add2_8_ i_add1_8_] _35_ d_lut_NOR2X1
AOAI21X1_18 [_35_ _32_ _34_] w_C_9_ d_lut_OAI21X1
AAND2X2_13 [i_add2_9_ i_add1_9_] _36_ d_lut_AND2X2
AINVX1_51 [_36_] _37_ d_lut_INVX1
AINVX1_52 [_35_] _38_ d_lut_INVX1
ANAND3X1_24 [_28_ _34_ _31_] _39_ d_lut_NAND3X1
ANOR2X1_24 [i_add2_9_ i_add1_9_] _40_ d_lut_NOR2X1
AINVX1_53 [_40_] _41_ d_lut_INVX1
ANAND3X1_25 [_38_ _41_ _39_] _42_ d_lut_NAND3X1
AAND2X2_14 [_42_ _37_] _43_ d_lut_AND2X2
AINVX1_54 [_43_] w_C_10_ d_lut_INVX1
AAND2X2_15 [i_add2_10_ i_add1_10_] _44_ d_lut_AND2X2
AINVX1_55 [_44_] _45_ d_lut_INVX1
ANAND3X1_26 [_37_ _45_ _42_] _46_ d_lut_NAND3X1
AOAI21X1_19 [i_add2_10_ i_add1_10_ _46_] _47_ d_lut_OAI21X1
AINVX1_56 [_47_] w_C_11_ d_lut_INVX1
AINVX1_57 [i_add2_11_] _48_ d_lut_INVX1
AINVX1_58 [i_add1_11_] _49_ d_lut_INVX1
ANOR2X1_25 [i_add2_10_ i_add1_10_] _50_ d_lut_NOR2X1
AINVX1_59 [_50_] _51_ d_lut_INVX1
ANOR2X1_26 [i_add2_11_ i_add1_11_] _52_ d_lut_NOR2X1
AINVX1_60 [_52_] _53_ d_lut_INVX1
ANAND3X1_27 [_51_ _53_ _46_] _54_ d_lut_NAND3X1
AOAI21X1_20 [_48_ _49_ _54_] w_C_12_ d_lut_OAI21X1
ANOR2X1_27 [_48_ _49_] _55_ d_lut_NOR2X1
AINVX1_61 [_55_] _56_ d_lut_INVX1
AAND2X2_16 [i_add2_12_ i_add1_12_] _57_ d_lut_AND2X2
AINVX1_62 [_57_] _58_ d_lut_INVX1
ANAND3X1_28 [_56_ _58_ _54_] _59_ d_lut_NAND3X1
AOAI21X1_21 [i_add2_12_ i_add1_12_ _59_] _60_ d_lut_OAI21X1
AINVX1_63 [_60_] w_C_13_ d_lut_INVX1
AINVX1_64 [i_add2_13_] _61_ d_lut_INVX1
AINVX1_65 [i_add1_13_] _62_ d_lut_INVX1
ANOR2X1_28 [i_add2_12_ i_add1_12_] _63_ d_lut_NOR2X1
AINVX1_66 [_63_] _64_ d_lut_INVX1
ABUFX2_1 [_352__0_] o_result_0_ d_lut_BUFX2
ABUFX2_2 [_352__1_] o_result_1_ d_lut_BUFX2
ABUFX2_3 [_352__2_] o_result_2_ d_lut_BUFX2
ABUFX2_4 [_352__3_] o_result_3_ d_lut_BUFX2
ABUFX2_5 [_352__4_] o_result_4_ d_lut_BUFX2
ABUFX2_6 [_352__5_] o_result_5_ d_lut_BUFX2
ABUFX2_7 [_352__6_] o_result_6_ d_lut_BUFX2
ABUFX2_8 [_352__7_] o_result_7_ d_lut_BUFX2
ABUFX2_9 [_352__8_] o_result_8_ d_lut_BUFX2
ABUFX2_10 [_352__9_] o_result_9_ d_lut_BUFX2
ABUFX2_11 [_352__10_] o_result_10_ d_lut_BUFX2
ABUFX2_12 [_352__11_] o_result_11_ d_lut_BUFX2
ABUFX2_13 [_352__12_] o_result_12_ d_lut_BUFX2
ABUFX2_14 [_352__13_] o_result_13_ d_lut_BUFX2
ABUFX2_15 [_352__14_] o_result_14_ d_lut_BUFX2
ABUFX2_16 [_352__15_] o_result_15_ d_lut_BUFX2
ABUFX2_17 [_352__16_] o_result_16_ d_lut_BUFX2
ABUFX2_18 [_352__17_] o_result_17_ d_lut_BUFX2
ABUFX2_19 [_352__18_] o_result_18_ d_lut_BUFX2
ABUFX2_20 [_352__19_] o_result_19_ d_lut_BUFX2
ABUFX2_21 [_352__20_] o_result_20_ d_lut_BUFX2
ABUFX2_22 [_352__21_] o_result_21_ d_lut_BUFX2
ABUFX2_23 [_352__22_] o_result_22_ d_lut_BUFX2
ABUFX2_24 [_352__23_] o_result_23_ d_lut_BUFX2
ABUFX2_25 [_352__24_] o_result_24_ d_lut_BUFX2
ABUFX2_26 [_352__25_] o_result_25_ d_lut_BUFX2
ABUFX2_27 [_352__26_] o_result_26_ d_lut_BUFX2
ABUFX2_28 [_352__27_] o_result_27_ d_lut_BUFX2
ABUFX2_29 [_352__28_] o_result_28_ d_lut_BUFX2
ABUFX2_30 [_352__29_] o_result_29_ d_lut_BUFX2
ABUFX2_31 [_352__30_] o_result_30_ d_lut_BUFX2
ABUFX2_32 [_352__31_] o_result_31_ d_lut_BUFX2
ABUFX2_33 [_352__32_] o_result_32_ d_lut_BUFX2
ABUFX2_34 [_352__33_] o_result_33_ d_lut_BUFX2
ABUFX2_35 [_352__34_] o_result_34_ d_lut_BUFX2
ABUFX2_36 [_352__35_] o_result_35_ d_lut_BUFX2
ABUFX2_37 [_352__36_] o_result_36_ d_lut_BUFX2
ABUFX2_38 [_352__37_] o_result_37_ d_lut_BUFX2
ABUFX2_39 [_352__38_] o_result_38_ d_lut_BUFX2
ABUFX2_40 [_352__39_] o_result_39_ d_lut_BUFX2
ABUFX2_41 [_352__40_] o_result_40_ d_lut_BUFX2
ABUFX2_42 [_352__41_] o_result_41_ d_lut_BUFX2
ABUFX2_43 [_352__42_] o_result_42_ d_lut_BUFX2
ABUFX2_44 [_352__43_] o_result_43_ d_lut_BUFX2
ABUFX2_45 [_352__44_] o_result_44_ d_lut_BUFX2
ABUFX2_46 [_352__45_] o_result_45_ d_lut_BUFX2
ABUFX2_47 [_352__46_] o_result_46_ d_lut_BUFX2
ABUFX2_48 [_352__47_] o_result_47_ d_lut_BUFX2
ABUFX2_49 [_352__48_] o_result_48_ d_lut_BUFX2
ABUFX2_50 [_352__49_] o_result_49_ d_lut_BUFX2
ABUFX2_51 [_352__50_] o_result_50_ d_lut_BUFX2
ABUFX2_52 [_352__51_] o_result_51_ d_lut_BUFX2
ABUFX2_53 [_352__52_] o_result_52_ d_lut_BUFX2
ABUFX2_54 [_352__53_] o_result_53_ d_lut_BUFX2
ABUFX2_55 [_352__54_] o_result_54_ d_lut_BUFX2
ABUFX2_56 [_352__55_] o_result_55_ d_lut_BUFX2
ABUFX2_57 [_352__56_] o_result_56_ d_lut_BUFX2
ABUFX2_58 [_352__57_] o_result_57_ d_lut_BUFX2
ABUFX2_59 [_352__58_] o_result_58_ d_lut_BUFX2
ABUFX2_60 [_352__59_] o_result_59_ d_lut_BUFX2
ABUFX2_61 [w_C_60_] o_result_60_ d_lut_BUFX2
AINVX1_67 [w_C_4_] _356_ d_lut_INVX1
AOR2X2_6 [i_add2_4_ i_add1_4_] _357_ d_lut_OR2X2
ANAND2X1_21 [i_add2_4_ i_add1_4_] _358_ d_lut_NAND2X1
ANAND3X1_29 [_356_ _358_ _357_] _359_ d_lut_NAND3X1
ANOR2X1_29 [i_add2_4_ i_add1_4_] _353_ d_lut_NOR2X1
AAND2X2_17 [i_add2_4_ i_add1_4_] _354_ d_lut_AND2X2
AOAI21X1_22 [_353_ _354_ w_C_4_] _355_ d_lut_OAI21X1
ANAND2X1_22 [_355_ _359_] _352__4_ d_lut_NAND2X1
AINVX1_68 [w_C_5_] _363_ d_lut_INVX1
AOR2X2_7 [i_add2_5_ i_add1_5_] _364_ d_lut_OR2X2
ANAND2X1_23 [i_add2_5_ i_add1_5_] _365_ d_lut_NAND2X1
ANAND3X1_30 [_363_ _365_ _364_] _366_ d_lut_NAND3X1
ANOR2X1_30 [i_add2_5_ i_add1_5_] _360_ d_lut_NOR2X1
AAND2X2_18 [i_add2_5_ i_add1_5_] _361_ d_lut_AND2X2
AOAI21X1_23 [_360_ _361_ w_C_5_] _362_ d_lut_OAI21X1
ANAND2X1_24 [_362_ _366_] _352__5_ d_lut_NAND2X1
AINVX1_69 [w_C_6_] _370_ d_lut_INVX1
AOR2X2_8 [i_add2_6_ i_add1_6_] _371_ d_lut_OR2X2
ANAND2X1_25 [i_add2_6_ i_add1_6_] _372_ d_lut_NAND2X1
ANAND3X1_31 [_370_ _372_ _371_] _373_ d_lut_NAND3X1
ANOR2X1_31 [i_add2_6_ i_add1_6_] _367_ d_lut_NOR2X1
AAND2X2_19 [i_add2_6_ i_add1_6_] _368_ d_lut_AND2X2
AOAI21X1_24 [_367_ _368_ w_C_6_] _369_ d_lut_OAI21X1
ANAND2X1_26 [_369_ _373_] _352__6_ d_lut_NAND2X1
AINVX1_70 [w_C_7_] _377_ d_lut_INVX1
AOR2X2_9 [i_add2_7_ i_add1_7_] _378_ d_lut_OR2X2
ANAND2X1_27 [i_add2_7_ i_add1_7_] _379_ d_lut_NAND2X1
ANAND3X1_32 [_377_ _379_ _378_] _380_ d_lut_NAND3X1
ANOR2X1_32 [i_add2_7_ i_add1_7_] _374_ d_lut_NOR2X1
AAND2X2_20 [i_add2_7_ i_add1_7_] _375_ d_lut_AND2X2
AOAI21X1_25 [_374_ _375_ w_C_7_] _376_ d_lut_OAI21X1
ANAND2X1_28 [_376_ _380_] _352__7_ d_lut_NAND2X1
AINVX1_71 [w_C_8_] _384_ d_lut_INVX1
AOR2X2_10 [i_add2_8_ i_add1_8_] _385_ d_lut_OR2X2
ANAND2X1_29 [i_add2_8_ i_add1_8_] _386_ d_lut_NAND2X1
ANAND3X1_33 [_384_ _386_ _385_] _387_ d_lut_NAND3X1
ANOR2X1_33 [i_add2_8_ i_add1_8_] _381_ d_lut_NOR2X1
AAND2X2_21 [i_add2_8_ i_add1_8_] _382_ d_lut_AND2X2
AOAI21X1_26 [_381_ _382_ w_C_8_] _383_ d_lut_OAI21X1
ANAND2X1_30 [_383_ _387_] _352__8_ d_lut_NAND2X1
AINVX1_72 [w_C_9_] _391_ d_lut_INVX1
AOR2X2_11 [i_add2_9_ i_add1_9_] _392_ d_lut_OR2X2
ANAND2X1_31 [i_add2_9_ i_add1_9_] _393_ d_lut_NAND2X1
ANAND3X1_34 [_391_ _393_ _392_] _394_ d_lut_NAND3X1
ANOR2X1_34 [i_add2_9_ i_add1_9_] _388_ d_lut_NOR2X1
AAND2X2_22 [i_add2_9_ i_add1_9_] _389_ d_lut_AND2X2
AOAI21X1_27 [_388_ _389_ w_C_9_] _390_ d_lut_OAI21X1
ANAND2X1_32 [_390_ _394_] _352__9_ d_lut_NAND2X1
AINVX1_73 [w_C_10_] _398_ d_lut_INVX1
AOR2X2_12 [i_add2_10_ i_add1_10_] _399_ d_lut_OR2X2
ANAND2X1_33 [i_add2_10_ i_add1_10_] _400_ d_lut_NAND2X1
ANAND3X1_35 [_398_ _400_ _399_] _401_ d_lut_NAND3X1
ANOR2X1_35 [i_add2_10_ i_add1_10_] _395_ d_lut_NOR2X1
AAND2X2_23 [i_add2_10_ i_add1_10_] _396_ d_lut_AND2X2
AOAI21X1_28 [_395_ _396_ w_C_10_] _397_ d_lut_OAI21X1
ANAND2X1_34 [_397_ _401_] _352__10_ d_lut_NAND2X1
AINVX1_74 [w_C_11_] _405_ d_lut_INVX1
AOR2X2_13 [i_add2_11_ i_add1_11_] _406_ d_lut_OR2X2
ANAND2X1_35 [i_add2_11_ i_add1_11_] _407_ d_lut_NAND2X1
ANAND3X1_36 [_405_ _407_ _406_] _408_ d_lut_NAND3X1
ANOR2X1_36 [i_add2_11_ i_add1_11_] _402_ d_lut_NOR2X1
AAND2X2_24 [i_add2_11_ i_add1_11_] _403_ d_lut_AND2X2
AOAI21X1_29 [_402_ _403_ w_C_11_] _404_ d_lut_OAI21X1
ANAND2X1_36 [_404_ _408_] _352__11_ d_lut_NAND2X1
AINVX1_75 [w_C_12_] _412_ d_lut_INVX1
AOR2X2_14 [i_add2_12_ i_add1_12_] _413_ d_lut_OR2X2
ANAND2X1_37 [i_add2_12_ i_add1_12_] _414_ d_lut_NAND2X1
ANAND3X1_37 [_412_ _414_ _413_] _415_ d_lut_NAND3X1
ANOR2X1_37 [i_add2_12_ i_add1_12_] _409_ d_lut_NOR2X1
AAND2X2_25 [i_add2_12_ i_add1_12_] _410_ d_lut_AND2X2
AOAI21X1_30 [_409_ _410_ w_C_12_] _411_ d_lut_OAI21X1
ANAND2X1_38 [_411_ _415_] _352__12_ d_lut_NAND2X1
AINVX1_76 [w_C_13_] _419_ d_lut_INVX1
AOR2X2_15 [i_add2_13_ i_add1_13_] _420_ d_lut_OR2X2
ANAND2X1_39 [i_add2_13_ i_add1_13_] _421_ d_lut_NAND2X1
ANAND3X1_38 [_419_ _421_ _420_] _422_ d_lut_NAND3X1
ANOR2X1_38 [i_add2_13_ i_add1_13_] _416_ d_lut_NOR2X1
AAND2X2_26 [i_add2_13_ i_add1_13_] _417_ d_lut_AND2X2
AOAI21X1_31 [_416_ _417_ w_C_13_] _418_ d_lut_OAI21X1
ANAND2X1_40 [_418_ _422_] _352__13_ d_lut_NAND2X1
AINVX1_77 [w_C_14_] _426_ d_lut_INVX1
AOR2X2_16 [i_add2_14_ i_add1_14_] _427_ d_lut_OR2X2
ANAND2X1_41 [i_add2_14_ i_add1_14_] _428_ d_lut_NAND2X1
ANAND3X1_39 [_426_ _428_ _427_] _429_ d_lut_NAND3X1
ANOR2X1_39 [i_add2_14_ i_add1_14_] _423_ d_lut_NOR2X1
AAND2X2_27 [i_add2_14_ i_add1_14_] _424_ d_lut_AND2X2
AOAI21X1_32 [_423_ _424_ w_C_14_] _425_ d_lut_OAI21X1
ANAND2X1_42 [_425_ _429_] _352__14_ d_lut_NAND2X1
AINVX1_78 [w_C_15_] _433_ d_lut_INVX1
AOR2X2_17 [i_add2_15_ i_add1_15_] _434_ d_lut_OR2X2
ANAND2X1_43 [i_add2_15_ i_add1_15_] _435_ d_lut_NAND2X1
ANAND3X1_40 [_433_ _435_ _434_] _436_ d_lut_NAND3X1
ANOR2X1_40 [i_add2_15_ i_add1_15_] _430_ d_lut_NOR2X1
AAND2X2_28 [i_add2_15_ i_add1_15_] _431_ d_lut_AND2X2
AOAI21X1_33 [_430_ _431_ w_C_15_] _432_ d_lut_OAI21X1
ANAND2X1_44 [_432_ _436_] _352__15_ d_lut_NAND2X1
AINVX1_79 [w_C_16_] _440_ d_lut_INVX1
AOR2X2_18 [i_add2_16_ i_add1_16_] _441_ d_lut_OR2X2
ANAND2X1_45 [i_add2_16_ i_add1_16_] _442_ d_lut_NAND2X1
ANAND3X1_41 [_440_ _442_ _441_] _443_ d_lut_NAND3X1
ANOR2X1_41 [i_add2_16_ i_add1_16_] _437_ d_lut_NOR2X1
AAND2X2_29 [i_add2_16_ i_add1_16_] _438_ d_lut_AND2X2
AOAI21X1_34 [_437_ _438_ w_C_16_] _439_ d_lut_OAI21X1
ANAND2X1_46 [_439_ _443_] _352__16_ d_lut_NAND2X1
AINVX1_80 [w_C_17_] _447_ d_lut_INVX1
AOR2X2_19 [i_add2_17_ i_add1_17_] _448_ d_lut_OR2X2
ANAND2X1_47 [i_add2_17_ i_add1_17_] _449_ d_lut_NAND2X1
ANAND3X1_42 [_447_ _449_ _448_] _450_ d_lut_NAND3X1
ANOR2X1_42 [i_add2_17_ i_add1_17_] _444_ d_lut_NOR2X1
AAND2X2_30 [i_add2_17_ i_add1_17_] _445_ d_lut_AND2X2
AOAI21X1_35 [_444_ _445_ w_C_17_] _446_ d_lut_OAI21X1
ANAND2X1_48 [_446_ _450_] _352__17_ d_lut_NAND2X1
AINVX1_81 [w_C_18_] _454_ d_lut_INVX1
AOR2X2_20 [i_add2_18_ i_add1_18_] _455_ d_lut_OR2X2
ANAND2X1_49 [i_add2_18_ i_add1_18_] _456_ d_lut_NAND2X1
ANAND3X1_43 [_454_ _456_ _455_] _457_ d_lut_NAND3X1
ANOR2X1_43 [i_add2_18_ i_add1_18_] _451_ d_lut_NOR2X1
AAND2X2_31 [i_add2_18_ i_add1_18_] _452_ d_lut_AND2X2
AOAI21X1_36 [_451_ _452_ w_C_18_] _453_ d_lut_OAI21X1
ANAND2X1_50 [_453_ _457_] _352__18_ d_lut_NAND2X1
AINVX1_82 [w_C_19_] _461_ d_lut_INVX1
AOR2X2_21 [i_add2_19_ i_add1_19_] _462_ d_lut_OR2X2
ANAND2X1_51 [i_add2_19_ i_add1_19_] _463_ d_lut_NAND2X1
ANAND3X1_44 [_461_ _463_ _462_] _464_ d_lut_NAND3X1
ANOR2X1_44 [i_add2_19_ i_add1_19_] _458_ d_lut_NOR2X1
AAND2X2_32 [i_add2_19_ i_add1_19_] _459_ d_lut_AND2X2
AOAI21X1_37 [_458_ _459_ w_C_19_] _460_ d_lut_OAI21X1
ANAND2X1_52 [_460_ _464_] _352__19_ d_lut_NAND2X1
AINVX1_83 [w_C_20_] _468_ d_lut_INVX1
AOR2X2_22 [i_add2_20_ i_add1_20_] _469_ d_lut_OR2X2
ANAND2X1_53 [i_add2_20_ i_add1_20_] _470_ d_lut_NAND2X1
ANAND3X1_45 [_468_ _470_ _469_] _471_ d_lut_NAND3X1
ANOR2X1_45 [i_add2_20_ i_add1_20_] _465_ d_lut_NOR2X1
AAND2X2_33 [i_add2_20_ i_add1_20_] _466_ d_lut_AND2X2
AOAI21X1_38 [_465_ _466_ w_C_20_] _467_ d_lut_OAI21X1
ANAND2X1_54 [_467_ _471_] _352__20_ d_lut_NAND2X1
AINVX1_84 [w_C_21_] _475_ d_lut_INVX1
AOR2X2_23 [i_add2_21_ i_add1_21_] _476_ d_lut_OR2X2
ANAND2X1_55 [i_add2_21_ i_add1_21_] _477_ d_lut_NAND2X1
ANAND3X1_46 [_475_ _477_ _476_] _478_ d_lut_NAND3X1
ANOR2X1_46 [i_add2_21_ i_add1_21_] _472_ d_lut_NOR2X1
AAND2X2_34 [i_add2_21_ i_add1_21_] _473_ d_lut_AND2X2
AOAI21X1_39 [_472_ _473_ w_C_21_] _474_ d_lut_OAI21X1
ANAND2X1_56 [_474_ _478_] _352__21_ d_lut_NAND2X1
AINVX1_85 [w_C_22_] _482_ d_lut_INVX1
AOR2X2_24 [i_add2_22_ i_add1_22_] _483_ d_lut_OR2X2
ANAND2X1_57 [i_add2_22_ i_add1_22_] _484_ d_lut_NAND2X1
ANAND3X1_47 [_482_ _484_ _483_] _485_ d_lut_NAND3X1
ANOR2X1_47 [i_add2_22_ i_add1_22_] _479_ d_lut_NOR2X1
AAND2X2_35 [i_add2_22_ i_add1_22_] _480_ d_lut_AND2X2
AOAI21X1_40 [_479_ _480_ w_C_22_] _481_ d_lut_OAI21X1
ANAND2X1_58 [_481_ _485_] _352__22_ d_lut_NAND2X1
AINVX1_86 [w_C_23_] _489_ d_lut_INVX1
AOR2X2_25 [i_add2_23_ i_add1_23_] _490_ d_lut_OR2X2
ANAND2X1_59 [i_add2_23_ i_add1_23_] _491_ d_lut_NAND2X1
ANAND3X1_48 [_489_ _491_ _490_] _492_ d_lut_NAND3X1
ANOR2X1_48 [i_add2_23_ i_add1_23_] _486_ d_lut_NOR2X1
AAND2X2_36 [i_add2_23_ i_add1_23_] _487_ d_lut_AND2X2
AOAI21X1_41 [_486_ _487_ w_C_23_] _488_ d_lut_OAI21X1
ANAND2X1_60 [_488_ _492_] _352__23_ d_lut_NAND2X1
AINVX1_87 [w_C_24_] _496_ d_lut_INVX1
AOR2X2_26 [i_add2_24_ i_add1_24_] _497_ d_lut_OR2X2
ANAND2X1_61 [i_add2_24_ i_add1_24_] _498_ d_lut_NAND2X1
ANAND3X1_49 [_496_ _498_ _497_] _499_ d_lut_NAND3X1
ANOR2X1_49 [i_add2_24_ i_add1_24_] _493_ d_lut_NOR2X1
AAND2X2_37 [i_add2_24_ i_add1_24_] _494_ d_lut_AND2X2
AOAI21X1_42 [_493_ _494_ w_C_24_] _495_ d_lut_OAI21X1
ANAND2X1_62 [_495_ _499_] _352__24_ d_lut_NAND2X1
AINVX1_88 [w_C_25_] _503_ d_lut_INVX1
AOR2X2_27 [i_add2_25_ i_add1_25_] _504_ d_lut_OR2X2
ANAND2X1_63 [i_add2_25_ i_add1_25_] _505_ d_lut_NAND2X1
ANAND3X1_50 [_503_ _505_ _504_] _506_ d_lut_NAND3X1
ANOR2X1_50 [i_add2_25_ i_add1_25_] _500_ d_lut_NOR2X1
AAND2X2_38 [i_add2_25_ i_add1_25_] _501_ d_lut_AND2X2
AOAI21X1_43 [_500_ _501_ w_C_25_] _502_ d_lut_OAI21X1
ANAND2X1_64 [_502_ _506_] _352__25_ d_lut_NAND2X1
AINVX1_89 [w_C_26_] _510_ d_lut_INVX1
AOR2X2_28 [i_add2_26_ i_add1_26_] _511_ d_lut_OR2X2
ANAND2X1_65 [i_add2_26_ i_add1_26_] _512_ d_lut_NAND2X1
ANAND3X1_51 [_510_ _512_ _511_] _513_ d_lut_NAND3X1
ANOR2X1_51 [i_add2_26_ i_add1_26_] _507_ d_lut_NOR2X1
AAND2X2_39 [i_add2_26_ i_add1_26_] _508_ d_lut_AND2X2
AOAI21X1_44 [_507_ _508_ w_C_26_] _509_ d_lut_OAI21X1
ANAND2X1_66 [_509_ _513_] _352__26_ d_lut_NAND2X1
AINVX1_90 [w_C_27_] _517_ d_lut_INVX1
AOR2X2_29 [i_add2_27_ i_add1_27_] _518_ d_lut_OR2X2
ANAND2X1_67 [i_add2_27_ i_add1_27_] _519_ d_lut_NAND2X1
ANAND3X1_52 [_517_ _519_ _518_] _520_ d_lut_NAND3X1
ANOR2X1_52 [i_add2_27_ i_add1_27_] _514_ d_lut_NOR2X1
AAND2X2_40 [i_add2_27_ i_add1_27_] _515_ d_lut_AND2X2
AOAI21X1_45 [_514_ _515_ w_C_27_] _516_ d_lut_OAI21X1
ANAND2X1_68 [_516_ _520_] _352__27_ d_lut_NAND2X1
AINVX1_91 [w_C_28_] _524_ d_lut_INVX1
AOR2X2_30 [i_add2_28_ i_add1_28_] _525_ d_lut_OR2X2
ANAND2X1_69 [i_add2_28_ i_add1_28_] _526_ d_lut_NAND2X1
ANAND3X1_53 [_524_ _526_ _525_] _527_ d_lut_NAND3X1
ANOR2X1_53 [i_add2_28_ i_add1_28_] _521_ d_lut_NOR2X1
AAND2X2_41 [i_add2_28_ i_add1_28_] _522_ d_lut_AND2X2
AOAI21X1_46 [_521_ _522_ w_C_28_] _523_ d_lut_OAI21X1
ANAND2X1_70 [_523_ _527_] _352__28_ d_lut_NAND2X1
AINVX1_92 [w_C_29_] _531_ d_lut_INVX1
AOR2X2_31 [i_add2_29_ i_add1_29_] _532_ d_lut_OR2X2
ANAND2X1_71 [i_add2_29_ i_add1_29_] _533_ d_lut_NAND2X1
ANAND3X1_54 [_531_ _533_ _532_] _534_ d_lut_NAND3X1
ANOR2X1_54 [i_add2_29_ i_add1_29_] _528_ d_lut_NOR2X1
AAND2X2_42 [i_add2_29_ i_add1_29_] _529_ d_lut_AND2X2
AOAI21X1_47 [_528_ _529_ w_C_29_] _530_ d_lut_OAI21X1
ANAND2X1_72 [_530_ _534_] _352__29_ d_lut_NAND2X1
AINVX1_93 [w_C_30_] _538_ d_lut_INVX1
AOR2X2_32 [i_add2_30_ i_add1_30_] _539_ d_lut_OR2X2
ANAND2X1_73 [i_add2_30_ i_add1_30_] _540_ d_lut_NAND2X1
ANAND3X1_55 [_538_ _540_ _539_] _541_ d_lut_NAND3X1
ANOR2X1_55 [i_add2_30_ i_add1_30_] _535_ d_lut_NOR2X1
AAND2X2_43 [i_add2_30_ i_add1_30_] _536_ d_lut_AND2X2
AOAI21X1_48 [_535_ _536_ w_C_30_] _537_ d_lut_OAI21X1
ANAND2X1_74 [_537_ _541_] _352__30_ d_lut_NAND2X1
AINVX1_94 [w_C_31_] _545_ d_lut_INVX1
AOR2X2_33 [i_add2_31_ i_add1_31_] _546_ d_lut_OR2X2
ANAND2X1_75 [i_add2_31_ i_add1_31_] _547_ d_lut_NAND2X1
ANAND3X1_56 [_545_ _547_ _546_] _548_ d_lut_NAND3X1
ANOR2X1_56 [i_add2_31_ i_add1_31_] _542_ d_lut_NOR2X1
AAND2X2_44 [i_add2_31_ i_add1_31_] _543_ d_lut_AND2X2
AOAI21X1_49 [_542_ _543_ w_C_31_] _544_ d_lut_OAI21X1
ANAND2X1_76 [_544_ _548_] _352__31_ d_lut_NAND2X1
AINVX1_95 [w_C_32_] _552_ d_lut_INVX1
AOR2X2_34 [i_add2_32_ i_add1_32_] _553_ d_lut_OR2X2
ANAND2X1_77 [i_add2_32_ i_add1_32_] _554_ d_lut_NAND2X1
ANAND3X1_57 [_552_ _554_ _553_] _555_ d_lut_NAND3X1
ANOR2X1_57 [i_add2_32_ i_add1_32_] _549_ d_lut_NOR2X1
AAND2X2_45 [i_add2_32_ i_add1_32_] _550_ d_lut_AND2X2
AOAI21X1_50 [_549_ _550_ w_C_32_] _551_ d_lut_OAI21X1
ANAND2X1_78 [_551_ _555_] _352__32_ d_lut_NAND2X1
AINVX1_96 [w_C_33_] _559_ d_lut_INVX1
AOR2X2_35 [i_add2_33_ i_add1_33_] _560_ d_lut_OR2X2
ANAND2X1_79 [i_add2_33_ i_add1_33_] _561_ d_lut_NAND2X1
ANAND3X1_58 [_559_ _561_ _560_] _562_ d_lut_NAND3X1
ANOR2X1_58 [i_add2_33_ i_add1_33_] _556_ d_lut_NOR2X1
AAND2X2_46 [i_add2_33_ i_add1_33_] _557_ d_lut_AND2X2
AOAI21X1_51 [_556_ _557_ w_C_33_] _558_ d_lut_OAI21X1
ANAND2X1_80 [_558_ _562_] _352__33_ d_lut_NAND2X1
AINVX1_97 [w_C_34_] _566_ d_lut_INVX1
AOR2X2_36 [i_add2_34_ i_add1_34_] _567_ d_lut_OR2X2
ANAND2X1_81 [i_add2_34_ i_add1_34_] _568_ d_lut_NAND2X1
ANAND3X1_59 [_566_ _568_ _567_] _569_ d_lut_NAND3X1
ANOR2X1_59 [i_add2_34_ i_add1_34_] _563_ d_lut_NOR2X1
AAND2X2_47 [i_add2_34_ i_add1_34_] _564_ d_lut_AND2X2
AOAI21X1_52 [_563_ _564_ w_C_34_] _565_ d_lut_OAI21X1
ANAND2X1_82 [_565_ _569_] _352__34_ d_lut_NAND2X1
AINVX1_98 [w_C_35_] _573_ d_lut_INVX1
AOR2X2_37 [i_add2_35_ i_add1_35_] _574_ d_lut_OR2X2
ANAND2X1_83 [i_add2_35_ i_add1_35_] _575_ d_lut_NAND2X1
ANAND3X1_60 [_573_ _575_ _574_] _576_ d_lut_NAND3X1
ANOR2X1_60 [i_add2_35_ i_add1_35_] _570_ d_lut_NOR2X1
AAND2X2_48 [i_add2_35_ i_add1_35_] _571_ d_lut_AND2X2
AOAI21X1_53 [_570_ _571_ w_C_35_] _572_ d_lut_OAI21X1
ANAND2X1_84 [_572_ _576_] _352__35_ d_lut_NAND2X1
AINVX1_99 [w_C_36_] _580_ d_lut_INVX1
AOR2X2_38 [i_add2_36_ i_add1_36_] _581_ d_lut_OR2X2
ANAND2X1_85 [i_add2_36_ i_add1_36_] _582_ d_lut_NAND2X1
ANAND3X1_61 [_580_ _582_ _581_] _583_ d_lut_NAND3X1
ANOR2X1_61 [i_add2_36_ i_add1_36_] _577_ d_lut_NOR2X1
AAND2X2_49 [i_add2_36_ i_add1_36_] _578_ d_lut_AND2X2
AOAI21X1_54 [_577_ _578_ w_C_36_] _579_ d_lut_OAI21X1
ANAND2X1_86 [_579_ _583_] _352__36_ d_lut_NAND2X1
AINVX1_100 [w_C_37_] _587_ d_lut_INVX1
AOR2X2_39 [i_add2_37_ i_add1_37_] _588_ d_lut_OR2X2
ANAND2X1_87 [i_add2_37_ i_add1_37_] _589_ d_lut_NAND2X1
ANAND3X1_62 [_587_ _589_ _588_] _590_ d_lut_NAND3X1
ANOR2X1_62 [i_add2_37_ i_add1_37_] _584_ d_lut_NOR2X1
AAND2X2_50 [i_add2_37_ i_add1_37_] _585_ d_lut_AND2X2
AOAI21X1_55 [_584_ _585_ w_C_37_] _586_ d_lut_OAI21X1
ANAND2X1_88 [_586_ _590_] _352__37_ d_lut_NAND2X1
AINVX1_101 [w_C_38_] _594_ d_lut_INVX1
AOR2X2_40 [i_add2_38_ i_add1_38_] _595_ d_lut_OR2X2
ANAND2X1_89 [i_add2_38_ i_add1_38_] _596_ d_lut_NAND2X1
ANAND3X1_63 [_594_ _596_ _595_] _597_ d_lut_NAND3X1
ANOR2X1_63 [i_add2_38_ i_add1_38_] _591_ d_lut_NOR2X1
AAND2X2_51 [i_add2_38_ i_add1_38_] _592_ d_lut_AND2X2
AOAI21X1_56 [_591_ _592_ w_C_38_] _593_ d_lut_OAI21X1
ANAND2X1_90 [_593_ _597_] _352__38_ d_lut_NAND2X1
AINVX1_102 [w_C_39_] _601_ d_lut_INVX1
AOR2X2_41 [i_add2_39_ i_add1_39_] _602_ d_lut_OR2X2
ANAND2X1_91 [i_add2_39_ i_add1_39_] _603_ d_lut_NAND2X1
ANAND3X1_64 [_601_ _603_ _602_] _604_ d_lut_NAND3X1
ANOR2X1_64 [i_add2_39_ i_add1_39_] _598_ d_lut_NOR2X1
AAND2X2_52 [i_add2_39_ i_add1_39_] _599_ d_lut_AND2X2
AOAI21X1_57 [_598_ _599_ w_C_39_] _600_ d_lut_OAI21X1
ANAND2X1_92 [_600_ _604_] _352__39_ d_lut_NAND2X1
AINVX1_103 [w_C_40_] _608_ d_lut_INVX1
AOR2X2_42 [i_add2_40_ i_add1_40_] _609_ d_lut_OR2X2
ANAND2X1_93 [i_add2_40_ i_add1_40_] _610_ d_lut_NAND2X1
ANAND3X1_65 [_608_ _610_ _609_] _611_ d_lut_NAND3X1
ANOR2X1_65 [i_add2_40_ i_add1_40_] _605_ d_lut_NOR2X1
AAND2X2_53 [i_add2_40_ i_add1_40_] _606_ d_lut_AND2X2
AOAI21X1_58 [_605_ _606_ w_C_40_] _607_ d_lut_OAI21X1
ANAND2X1_94 [_607_ _611_] _352__40_ d_lut_NAND2X1
AINVX1_104 [w_C_41_] _615_ d_lut_INVX1
AOR2X2_43 [i_add2_41_ i_add1_41_] _616_ d_lut_OR2X2
ANAND2X1_95 [i_add2_41_ i_add1_41_] _617_ d_lut_NAND2X1
ANAND3X1_66 [_615_ _617_ _616_] _618_ d_lut_NAND3X1
ANOR2X1_66 [i_add2_41_ i_add1_41_] _612_ d_lut_NOR2X1
AAND2X2_54 [i_add2_41_ i_add1_41_] _613_ d_lut_AND2X2
AOAI21X1_59 [_612_ _613_ w_C_41_] _614_ d_lut_OAI21X1
ANAND2X1_96 [_614_ _618_] _352__41_ d_lut_NAND2X1
AINVX1_105 [w_C_42_] _622_ d_lut_INVX1
AOR2X2_44 [i_add2_42_ i_add1_42_] _623_ d_lut_OR2X2
ANAND2X1_97 [i_add2_42_ i_add1_42_] _624_ d_lut_NAND2X1
ANAND3X1_67 [_622_ _624_ _623_] _625_ d_lut_NAND3X1
ANOR2X1_67 [i_add2_42_ i_add1_42_] _619_ d_lut_NOR2X1
AAND2X2_55 [i_add2_42_ i_add1_42_] _620_ d_lut_AND2X2
AOAI21X1_60 [_619_ _620_ w_C_42_] _621_ d_lut_OAI21X1
ANAND2X1_98 [_621_ _625_] _352__42_ d_lut_NAND2X1
AINVX1_106 [w_C_43_] _629_ d_lut_INVX1
AOR2X2_45 [i_add2_43_ i_add1_43_] _630_ d_lut_OR2X2