* XSpice netlist created from SPICE and liberty sources by spi2xspice.py
*SPICE netlist created from BLIF module cla_56bit by blif2BSpice
.subckt cla_56bit a_vdd a_gnd a_i_add1_0_ a_i_add1_1_ a_i_add1_2_ a_i_add1_3_ a_i_add1_4_ a_i_add1_5_ a_i_add1_6_ a_i_add1_7_ a_i_add1_8_ a_i_add1_9_ a_i_add1_10_ a_i_add1_11_ a_i_add1_12_ a_i_add1_13_ a_i_add1_14_ a_i_add1_15_ a_i_add1_16_ a_i_add1_17_ a_i_add1_18_ a_i_add1_19_ a_i_add1_20_ a_i_add1_21_ a_i_add1_22_ a_i_add1_23_ a_i_add1_24_ a_i_add1_25_ a_i_add1_26_ a_i_add1_27_ a_i_add1_28_ a_i_add1_29_ a_i_add1_30_ a_i_add1_31_ a_i_add1_32_ a_i_add1_33_ a_i_add1_34_ a_i_add1_35_ a_i_add1_36_ a_i_add1_37_ a_i_add1_38_ a_i_add1_39_ a_i_add1_40_ a_i_add1_41_ a_i_add1_42_ a_i_add1_43_ a_i_add1_44_ a_i_add1_45_ a_i_add1_46_ a_i_add1_47_ a_i_add1_48_ a_i_add1_49_ a_i_add1_50_ a_i_add1_51_ a_i_add1_52_ a_i_add1_53_ a_i_add1_54_ a_i_add1_55_ a_i_add2_0_ a_i_add2_1_ a_i_add2_2_ a_i_add2_3_ a_i_add2_4_ a_i_add2_5_ a_i_add2_6_ a_i_add2_7_ a_i_add2_8_ a_i_add2_9_ a_i_add2_10_ a_i_add2_11_ a_i_add2_12_ a_i_add2_13_ a_i_add2_14_ a_i_add2_15_ a_i_add2_16_ a_i_add2_17_ a_i_add2_18_ a_i_add2_19_ a_i_add2_20_ a_i_add2_21_ a_i_add2_22_ a_i_add2_23_ a_i_add2_24_ a_i_add2_25_ a_i_add2_26_ a_i_add2_27_ a_i_add2_28_ a_i_add2_29_ a_i_add2_30_ a_i_add2_31_ a_i_add2_32_ a_i_add2_33_ a_i_add2_34_ a_i_add2_35_ a_i_add2_36_ a_i_add2_37_ a_i_add2_38_ a_i_add2_39_ a_i_add2_40_ a_i_add2_41_ a_i_add2_42_ a_i_add2_43_ a_i_add2_44_ a_i_add2_45_ a_i_add2_46_ a_i_add2_47_ a_i_add2_48_ a_i_add2_49_ a_i_add2_50_ a_i_add2_51_ a_i_add2_52_ a_i_add2_53_ a_i_add2_54_ a_i_add2_55_ a_o_result_0_ a_o_result_1_ a_o_result_2_ a_o_result_3_ a_o_result_4_ a_o_result_5_ a_o_result_6_ a_o_result_7_ a_o_result_8_ a_o_result_9_ a_o_result_10_ a_o_result_11_ a_o_result_12_ a_o_result_13_ a_o_result_14_ a_o_result_15_ a_o_result_16_ a_o_result_17_ a_o_result_18_ a_o_result_19_ a_o_result_20_ a_o_result_21_ a_o_result_22_ a_o_result_23_ a_o_result_24_ a_o_result_25_ a_o_result_26_ a_o_result_27_ a_o_result_28_ a_o_result_29_ a_o_result_30_ a_o_result_31_ a_o_result_32_ a_o_result_33_ a_o_result_34_ a_o_result_35_ a_o_result_36_ a_o_result_37_ a_o_result_38_ a_o_result_39_ a_o_result_40_ a_o_result_41_ a_o_result_42_ a_o_result_43_ a_o_result_44_ a_o_result_45_ a_o_result_46_ a_o_result_47_ a_o_result_48_ a_o_result_49_ a_o_result_50_ a_o_result_51_ a_o_result_52_ a_o_result_53_ a_o_result_54_ a_o_result_55_ a_o_result_56_
AINVX1_1 [_21_] w_C_6_ d_lut_INVX1
AAND2X2_1 [i_add2_6_ i_add1_6_] _22_ d_lut_AND2X2
AINVX1_2 [_22_] _23_ d_lut_INVX1
ANAND3X1_1 [_15_ _23_ _20_] _24_ d_lut_NAND3X1
AOAI21X1_1 [i_add2_6_ i_add1_6_ _24_] _25_ d_lut_OAI21X1
AINVX1_3 [_25_] w_C_7_ d_lut_INVX1
AINVX1_4 [i_add2_7_] _26_ d_lut_INVX1
AINVX1_5 [i_add1_7_] _27_ d_lut_INVX1
ANOR2X1_1 [i_add2_6_ i_add1_6_] _28_ d_lut_NOR2X1
AINVX1_6 [_28_] _29_ d_lut_INVX1
ANOR2X1_2 [i_add2_7_ i_add1_7_] _30_ d_lut_NOR2X1
AINVX1_7 [_30_] _31_ d_lut_INVX1
ANAND3X1_2 [_29_ _31_ _24_] _32_ d_lut_NAND3X1
AOAI21X1_2 [_26_ _27_ _32_] w_C_8_ d_lut_OAI21X1
ANOR2X1_3 [_26_ _27_] _33_ d_lut_NOR2X1
AINVX1_8 [_33_] _34_ d_lut_INVX1
AAND2X2_2 [i_add2_8_ i_add1_8_] _35_ d_lut_AND2X2
AINVX1_9 [_35_] _36_ d_lut_INVX1
ANAND3X1_3 [_34_ _36_ _32_] _37_ d_lut_NAND3X1
AOAI21X1_3 [i_add2_8_ i_add1_8_ _37_] _38_ d_lut_OAI21X1
AINVX1_10 [_38_] w_C_9_ d_lut_INVX1
AINVX1_11 [i_add2_9_] _39_ d_lut_INVX1
AINVX1_12 [i_add1_9_] _40_ d_lut_INVX1
ANOR2X1_4 [i_add2_8_ i_add1_8_] _41_ d_lut_NOR2X1
AINVX1_13 [_41_] _42_ d_lut_INVX1
ANOR2X1_5 [i_add2_9_ i_add1_9_] _43_ d_lut_NOR2X1
AINVX1_14 [_43_] _44_ d_lut_INVX1
ANAND3X1_4 [_42_ _44_ _37_] _45_ d_lut_NAND3X1
AOAI21X1_4 [_39_ _40_ _45_] w_C_10_ d_lut_OAI21X1
ANOR2X1_6 [_39_ _40_] _46_ d_lut_NOR2X1
AINVX1_15 [_46_] _47_ d_lut_INVX1
AAND2X2_3 [i_add2_10_ i_add1_10_] _48_ d_lut_AND2X2
AINVX1_16 [_48_] _49_ d_lut_INVX1
ANAND3X1_5 [_47_ _49_ _45_] _50_ d_lut_NAND3X1
AOAI21X1_5 [i_add2_10_ i_add1_10_ _50_] _51_ d_lut_OAI21X1
AINVX1_17 [_51_] w_C_11_ d_lut_INVX1
AINVX1_18 [i_add2_11_] _52_ d_lut_INVX1
AINVX1_19 [i_add1_11_] _53_ d_lut_INVX1
ANOR2X1_7 [i_add2_10_ i_add1_10_] _54_ d_lut_NOR2X1
AINVX1_20 [_54_] _55_ d_lut_INVX1
ANOR2X1_8 [i_add2_11_ i_add1_11_] _56_ d_lut_NOR2X1
AINVX1_21 [_56_] _57_ d_lut_INVX1
ANAND3X1_6 [_55_ _57_ _50_] _58_ d_lut_NAND3X1
AOAI21X1_6 [_52_ _53_ _58_] w_C_12_ d_lut_OAI21X1
ANOR2X1_9 [_52_ _53_] _59_ d_lut_NOR2X1
AINVX1_22 [_59_] _60_ d_lut_INVX1
AAND2X2_4 [i_add2_12_ i_add1_12_] _61_ d_lut_AND2X2
AINVX1_23 [_61_] _62_ d_lut_INVX1
ANAND3X1_7 [_60_ _62_ _58_] _63_ d_lut_NAND3X1
AOAI21X1_7 [i_add2_12_ i_add1_12_ _63_] _64_ d_lut_OAI21X1
AINVX1_24 [_64_] w_C_13_ d_lut_INVX1
AINVX1_25 [i_add2_13_] _65_ d_lut_INVX1
AINVX1_26 [i_add1_13_] _66_ d_lut_INVX1
ANOR2X1_10 [i_add2_12_ i_add1_12_] _67_ d_lut_NOR2X1
AINVX1_27 [_67_] _68_ d_lut_INVX1
ANOR2X1_11 [i_add2_13_ i_add1_13_] _69_ d_lut_NOR2X1
AINVX1_28 [_69_] _70_ d_lut_INVX1
ANAND3X1_8 [_68_ _70_ _63_] _71_ d_lut_NAND3X1
AOAI21X1_8 [_65_ _66_ _71_] w_C_14_ d_lut_OAI21X1
ANOR2X1_12 [_65_ _66_] _72_ d_lut_NOR2X1
AINVX1_29 [_72_] _73_ d_lut_INVX1
AAND2X2_5 [i_add2_14_ i_add1_14_] _74_ d_lut_AND2X2
AINVX1_30 [_74_] _75_ d_lut_INVX1
ANAND3X1_9 [_73_ _75_ _71_] _76_ d_lut_NAND3X1
AOAI21X1_9 [i_add2_14_ i_add1_14_ _76_] _77_ d_lut_OAI21X1
AINVX1_31 [_77_] w_C_15_ d_lut_INVX1
AINVX1_32 [i_add2_15_] _78_ d_lut_INVX1
AINVX1_33 [i_add1_15_] _79_ d_lut_INVX1
ANOR2X1_13 [i_add2_14_ i_add1_14_] _80_ d_lut_NOR2X1
AINVX1_34 [_80_] _81_ d_lut_INVX1
ANOR2X1_14 [i_add2_15_ i_add1_15_] _82_ d_lut_NOR2X1
AINVX1_35 [_82_] _83_ d_lut_INVX1
ANAND3X1_10 [_81_ _83_ _76_] _84_ d_lut_NAND3X1
AOAI21X1_10 [_78_ _79_ _84_] w_C_16_ d_lut_OAI21X1
ANOR2X1_15 [_78_ _79_] _85_ d_lut_NOR2X1
AINVX1_36 [_85_] _86_ d_lut_INVX1
AAND2X2_6 [i_add2_16_ i_add1_16_] _87_ d_lut_AND2X2
AINVX1_37 [_87_] _88_ d_lut_INVX1
ANAND3X1_11 [_86_ _88_ _84_] _89_ d_lut_NAND3X1
AOAI21X1_11 [i_add2_16_ i_add1_16_ _89_] _90_ d_lut_OAI21X1
AINVX1_38 [_90_] w_C_17_ d_lut_INVX1
AINVX1_39 [i_add2_17_] _91_ d_lut_INVX1
AINVX1_40 [i_add1_17_] _92_ d_lut_INVX1
ANOR2X1_16 [i_add2_16_ i_add1_16_] _93_ d_lut_NOR2X1
AINVX1_41 [_93_] _94_ d_lut_INVX1
ANOR2X1_17 [i_add2_17_ i_add1_17_] _95_ d_lut_NOR2X1
AINVX1_42 [_95_] _96_ d_lut_INVX1
ANAND3X1_12 [_94_ _96_ _89_] _97_ d_lut_NAND3X1
AOAI21X1_12 [_91_ _92_ _97_] w_C_18_ d_lut_OAI21X1
ANOR2X1_18 [_91_ _92_] _98_ d_lut_NOR2X1
AINVX1_43 [_98_] _99_ d_lut_INVX1
AAND2X2_7 [i_add2_18_ i_add1_18_] _100_ d_lut_AND2X2
AINVX1_44 [_100_] _101_ d_lut_INVX1
ANAND3X1_13 [_99_ _101_ _97_] _102_ d_lut_NAND3X1
AOAI21X1_13 [i_add2_18_ i_add1_18_ _102_] _103_ d_lut_OAI21X1
AINVX1_45 [_103_] w_C_19_ d_lut_INVX1
AINVX1_46 [i_add2_19_] _104_ d_lut_INVX1
AINVX1_47 [i_add1_19_] _105_ d_lut_INVX1
ANOR2X1_19 [i_add2_18_ i_add1_18_] _106_ d_lut_NOR2X1
AINVX1_48 [_106_] _107_ d_lut_INVX1
ANOR2X1_20 [i_add2_19_ i_add1_19_] _108_ d_lut_NOR2X1
AINVX1_49 [_108_] _109_ d_lut_INVX1
ANAND3X1_14 [_107_ _109_ _102_] _110_ d_lut_NAND3X1
AOAI21X1_14 [_104_ _105_ _110_] w_C_20_ d_lut_OAI21X1
ANOR2X1_21 [_104_ _105_] _111_ d_lut_NOR2X1
AINVX1_50 [_111_] _112_ d_lut_INVX1
AAND2X2_8 [i_add2_20_ i_add1_20_] _113_ d_lut_AND2X2
AINVX1_51 [_113_] _114_ d_lut_INVX1
ANAND3X1_15 [_112_ _114_ _110_] _115_ d_lut_NAND3X1
ABUFX2_1 [_330__0_] o_result_0_ d_lut_BUFX2
ABUFX2_2 [_330__1_] o_result_1_ d_lut_BUFX2
ABUFX2_3 [_330__2_] o_result_2_ d_lut_BUFX2
ABUFX2_4 [_330__3_] o_result_3_ d_lut_BUFX2
ABUFX2_5 [_330__4_] o_result_4_ d_lut_BUFX2
ABUFX2_6 [_330__5_] o_result_5_ d_lut_BUFX2
ABUFX2_7 [_330__6_] o_result_6_ d_lut_BUFX2
ABUFX2_8 [_330__7_] o_result_7_ d_lut_BUFX2
ABUFX2_9 [_330__8_] o_result_8_ d_lut_BUFX2
ABUFX2_10 [_330__9_] o_result_9_ d_lut_BUFX2
ABUFX2_11 [_330__10_] o_result_10_ d_lut_BUFX2
ABUFX2_12 [_330__11_] o_result_11_ d_lut_BUFX2
ABUFX2_13 [_330__12_] o_result_12_ d_lut_BUFX2
ABUFX2_14 [_330__13_] o_result_13_ d_lut_BUFX2
ABUFX2_15 [_330__14_] o_result_14_ d_lut_BUFX2
ABUFX2_16 [_330__15_] o_result_15_ d_lut_BUFX2
ABUFX2_17 [_330__16_] o_result_16_ d_lut_BUFX2
ABUFX2_18 [_330__17_] o_result_17_ d_lut_BUFX2
ABUFX2_19 [_330__18_] o_result_18_ d_lut_BUFX2
ABUFX2_20 [_330__19_] o_result_19_ d_lut_BUFX2
ABUFX2_21 [_330__20_] o_result_20_ d_lut_BUFX2
ABUFX2_22 [_330__21_] o_result_21_ d_lut_BUFX2
ABUFX2_23 [_330__22_] o_result_22_ d_lut_BUFX2
ABUFX2_24 [_330__23_] o_result_23_ d_lut_BUFX2
ABUFX2_25 [_330__24_] o_result_24_ d_lut_BUFX2
ABUFX2_26 [_330__25_] o_result_25_ d_lut_BUFX2
ABUFX2_27 [_330__26_] o_result_26_ d_lut_BUFX2
ABUFX2_28 [_330__27_] o_result_27_ d_lut_BUFX2
ABUFX2_29 [_330__28_] o_result_28_ d_lut_BUFX2
ABUFX2_30 [_330__29_] o_result_29_ d_lut_BUFX2
ABUFX2_31 [_330__30_] o_result_30_ d_lut_BUFX2
ABUFX2_32 [_330__31_] o_result_31_ d_lut_BUFX2
ABUFX2_33 [_330__32_] o_result_32_ d_lut_BUFX2
ABUFX2_34 [_330__33_] o_result_33_ d_lut_BUFX2
ABUFX2_35 [_330__34_] o_result_34_ d_lut_BUFX2
ABUFX2_36 [_330__35_] o_result_35_ d_lut_BUFX2
ABUFX2_37 [_330__36_] o_result_36_ d_lut_BUFX2
ABUFX2_38 [_330__37_] o_result_37_ d_lut_BUFX2
ABUFX2_39 [_330__38_] o_result_38_ d_lut_BUFX2
ABUFX2_40 [_330__39_] o_result_39_ d_lut_BUFX2
ABUFX2_41 [_330__40_] o_result_40_ d_lut_BUFX2
ABUFX2_42 [_330__41_] o_result_41_ d_lut_BUFX2
ABUFX2_43 [_330__42_] o_result_42_ d_lut_BUFX2
ABUFX2_44 [_330__43_] o_result_43_ d_lut_BUFX2
ABUFX2_45 [_330__44_] o_result_44_ d_lut_BUFX2
ABUFX2_46 [_330__45_] o_result_45_ d_lut_BUFX2
ABUFX2_47 [_330__46_] o_result_46_ d_lut_BUFX2
ABUFX2_48 [_330__47_] o_result_47_ d_lut_BUFX2
ABUFX2_49 [_330__48_] o_result_48_ d_lut_BUFX2
ABUFX2_50 [_330__49_] o_result_49_ d_lut_BUFX2
ABUFX2_51 [_330__50_] o_result_50_ d_lut_BUFX2
ABUFX2_52 [_330__51_] o_result_51_ d_lut_BUFX2
ABUFX2_53 [_330__52_] o_result_52_ d_lut_BUFX2
ABUFX2_54 [_330__53_] o_result_53_ d_lut_BUFX2
ABUFX2_55 [_330__54_] o_result_54_ d_lut_BUFX2
ABUFX2_56 [_330__55_] o_result_55_ d_lut_BUFX2
ABUFX2_57 [w_C_56_] o_result_56_ d_lut_BUFX2
AINVX1_52 [w_C_4_] _334_ d_lut_INVX1
AOR2X2_1 [i_add2_4_ i_add1_4_] _335_ d_lut_OR2X2
ANAND2X1_1 [i_add2_4_ i_add1_4_] _336_ d_lut_NAND2X1
ANAND3X1_16 [_334_ _336_ _335_] _337_ d_lut_NAND3X1
ANOR2X1_22 [i_add2_4_ i_add1_4_] _331_ d_lut_NOR2X1
AAND2X2_9 [i_add2_4_ i_add1_4_] _332_ d_lut_AND2X2
AOAI21X1_15 [_331_ _332_ w_C_4_] _333_ d_lut_OAI21X1
ANAND2X1_2 [_333_ _337_] _330__4_ d_lut_NAND2X1
AINVX1_53 [w_C_5_] _341_ d_lut_INVX1
AOR2X2_2 [i_add2_5_ i_add1_5_] _342_ d_lut_OR2X2
ANAND2X1_3 [i_add2_5_ i_add1_5_] _343_ d_lut_NAND2X1
ANAND3X1_17 [_341_ _343_ _342_] _344_ d_lut_NAND3X1
ANOR2X1_23 [i_add2_5_ i_add1_5_] _338_ d_lut_NOR2X1
AAND2X2_10 [i_add2_5_ i_add1_5_] _339_ d_lut_AND2X2
AOAI21X1_16 [_338_ _339_ w_C_5_] _340_ d_lut_OAI21X1
ANAND2X1_4 [_340_ _344_] _330__5_ d_lut_NAND2X1
AINVX1_54 [w_C_6_] _348_ d_lut_INVX1
AOR2X2_3 [i_add2_6_ i_add1_6_] _349_ d_lut_OR2X2
ANAND2X1_5 [i_add2_6_ i_add1_6_] _350_ d_lut_NAND2X1
ANAND3X1_18 [_348_ _350_ _349_] _351_ d_lut_NAND3X1
ANOR2X1_24 [i_add2_6_ i_add1_6_] _345_ d_lut_NOR2X1
AAND2X2_11 [i_add2_6_ i_add1_6_] _346_ d_lut_AND2X2
AOAI21X1_17 [_345_ _346_ w_C_6_] _347_ d_lut_OAI21X1
ANAND2X1_6 [_347_ _351_] _330__6_ d_lut_NAND2X1
AINVX1_55 [w_C_7_] _355_ d_lut_INVX1
AOR2X2_4 [i_add2_7_ i_add1_7_] _356_ d_lut_OR2X2
ANAND2X1_7 [i_add2_7_ i_add1_7_] _357_ d_lut_NAND2X1
ANAND3X1_19 [_355_ _357_ _356_] _358_ d_lut_NAND3X1
ANOR2X1_25 [i_add2_7_ i_add1_7_] _352_ d_lut_NOR2X1
AAND2X2_12 [i_add2_7_ i_add1_7_] _353_ d_lut_AND2X2
AOAI21X1_18 [_352_ _353_ w_C_7_] _354_ d_lut_OAI21X1
ANAND2X1_8 [_354_ _358_] _330__7_ d_lut_NAND2X1
AINVX1_56 [w_C_8_] _362_ d_lut_INVX1
AOR2X2_5 [i_add2_8_ i_add1_8_] _363_ d_lut_OR2X2
ANAND2X1_9 [i_add2_8_ i_add1_8_] _364_ d_lut_NAND2X1
ANAND3X1_20 [_362_ _364_ _363_] _365_ d_lut_NAND3X1
ANOR2X1_26 [i_add2_8_ i_add1_8_] _359_ d_lut_NOR2X1
AAND2X2_13 [i_add2_8_ i_add1_8_] _360_ d_lut_AND2X2
AOAI21X1_19 [_359_ _360_ w_C_8_] _361_ d_lut_OAI21X1
ANAND2X1_10 [_361_ _365_] _330__8_ d_lut_NAND2X1
AINVX1_57 [w_C_9_] _369_ d_lut_INVX1
AOR2X2_6 [i_add2_9_ i_add1_9_] _370_ d_lut_OR2X2
ANAND2X1_11 [i_add2_9_ i_add1_9_] _371_ d_lut_NAND2X1
ANAND3X1_21 [_369_ _371_ _370_] _372_ d_lut_NAND3X1
ANOR2X1_27 [i_add2_9_ i_add1_9_] _366_ d_lut_NOR2X1
AAND2X2_14 [i_add2_9_ i_add1_9_] _367_ d_lut_AND2X2
AOAI21X1_20 [_366_ _367_ w_C_9_] _368_ d_lut_OAI21X1
ANAND2X1_12 [_368_ _372_] _330__9_ d_lut_NAND2X1
AINVX1_58 [w_C_10_] _376_ d_lut_INVX1
AOR2X2_7 [i_add2_10_ i_add1_10_] _377_ d_lut_OR2X2
ANAND2X1_13 [i_add2_10_ i_add1_10_] _378_ d_lut_NAND2X1
ANAND3X1_22 [_376_ _378_ _377_] _379_ d_lut_NAND3X1
ANOR2X1_28 [i_add2_10_ i_add1_10_] _373_ d_lut_NOR2X1
AAND2X2_15 [i_add2_10_ i_add1_10_] _374_ d_lut_AND2X2
AOAI21X1_21 [_373_ _374_ w_C_10_] _375_ d_lut_OAI21X1
ANAND2X1_14 [_375_ _379_] _330__10_ d_lut_NAND2X1
AINVX1_59 [w_C_11_] _383_ d_lut_INVX1
AOR2X2_8 [i_add2_11_ i_add1_11_] _384_ d_lut_OR2X2
ANAND2X1_15 [i_add2_11_ i_add1_11_] _385_ d_lut_NAND2X1
ANAND3X1_23 [_383_ _385_ _384_] _386_ d_lut_NAND3X1
ANOR2X1_29 [i_add2_11_ i_add1_11_] _380_ d_lut_NOR2X1
AAND2X2_16 [i_add2_11_ i_add1_11_] _381_ d_lut_AND2X2
AOAI21X1_22 [_380_ _381_ w_C_11_] _382_ d_lut_OAI21X1
ANAND2X1_16 [_382_ _386_] _330__11_ d_lut_NAND2X1
AINVX1_60 [w_C_12_] _390_ d_lut_INVX1
AOR2X2_9 [i_add2_12_ i_add1_12_] _391_ d_lut_OR2X2
ANAND2X1_17 [i_add2_12_ i_add1_12_] _392_ d_lut_NAND2X1
ANAND3X1_24 [_390_ _392_ _391_] _393_ d_lut_NAND3X1
ANOR2X1_30 [i_add2_12_ i_add1_12_] _387_ d_lut_NOR2X1
AAND2X2_17 [i_add2_12_ i_add1_12_] _388_ d_lut_AND2X2
AOAI21X1_23 [_387_ _388_ w_C_12_] _389_ d_lut_OAI21X1
ANAND2X1_18 [_389_ _393_] _330__12_ d_lut_NAND2X1
AINVX1_61 [w_C_13_] _397_ d_lut_INVX1
AOR2X2_10 [i_add2_13_ i_add1_13_] _398_ d_lut_OR2X2
ANAND2X1_19 [i_add2_13_ i_add1_13_] _399_ d_lut_NAND2X1
ANAND3X1_25 [_397_ _399_ _398_] _400_ d_lut_NAND3X1
ANOR2X1_31 [i_add2_13_ i_add1_13_] _394_ d_lut_NOR2X1
AAND2X2_18 [i_add2_13_ i_add1_13_] _395_ d_lut_AND2X2
AOAI21X1_24 [_394_ _395_ w_C_13_] _396_ d_lut_OAI21X1
ANAND2X1_20 [_396_ _400_] _330__13_ d_lut_NAND2X1
AINVX1_62 [w_C_14_] _404_ d_lut_INVX1
AOR2X2_11 [i_add2_14_ i_add1_14_] _405_ d_lut_OR2X2
ANAND2X1_21 [i_add2_14_ i_add1_14_] _406_ d_lut_NAND2X1
ANAND3X1_26 [_404_ _406_ _405_] _407_ d_lut_NAND3X1
ANOR2X1_32 [i_add2_14_ i_add1_14_] _401_ d_lut_NOR2X1
AAND2X2_19 [i_add2_14_ i_add1_14_] _402_ d_lut_AND2X2
AOAI21X1_25 [_401_ _402_ w_C_14_] _403_ d_lut_OAI21X1
ANAND2X1_22 [_403_ _407_] _330__14_ d_lut_NAND2X1
AINVX1_63 [w_C_15_] _411_ d_lut_INVX1
AOR2X2_12 [i_add2_15_ i_add1_15_] _412_ d_lut_OR2X2
ANAND2X1_23 [i_add2_15_ i_add1_15_] _413_ d_lut_NAND2X1
ANAND3X1_27 [_411_ _413_ _412_] _414_ d_lut_NAND3X1
ANOR2X1_33 [i_add2_15_ i_add1_15_] _408_ d_lut_NOR2X1
AAND2X2_20 [i_add2_15_ i_add1_15_] _409_ d_lut_AND2X2
AOAI21X1_26 [_408_ _409_ w_C_15_] _410_ d_lut_OAI21X1
ANAND2X1_24 [_410_ _414_] _330__15_ d_lut_NAND2X1
AINVX1_64 [w_C_16_] _418_ d_lut_INVX1
AOR2X2_13 [i_add2_16_ i_add1_16_] _419_ d_lut_OR2X2
ANAND2X1_25 [i_add2_16_ i_add1_16_] _420_ d_lut_NAND2X1
ANAND3X1_28 [_418_ _420_ _419_] _421_ d_lut_NAND3X1
ANOR2X1_34 [i_add2_16_ i_add1_16_] _415_ d_lut_NOR2X1
AAND2X2_21 [i_add2_16_ i_add1_16_] _416_ d_lut_AND2X2
AOAI21X1_27 [_415_ _416_ w_C_16_] _417_ d_lut_OAI21X1
ANAND2X1_26 [_417_ _421_] _330__16_ d_lut_NAND2X1
AINVX1_65 [w_C_17_] _425_ d_lut_INVX1
AOR2X2_14 [i_add2_17_ i_add1_17_] _426_ d_lut_OR2X2
ANAND2X1_27 [i_add2_17_ i_add1_17_] _427_ d_lut_NAND2X1
ANAND3X1_29 [_425_ _427_ _426_] _428_ d_lut_NAND3X1
ANOR2X1_35 [i_add2_17_ i_add1_17_] _422_ d_lut_NOR2X1
AAND2X2_22 [i_add2_17_ i_add1_17_] _423_ d_lut_AND2X2
AOAI21X1_28 [_422_ _423_ w_C_17_] _424_ d_lut_OAI21X1
ANAND2X1_28 [_424_ _428_] _330__17_ d_lut_NAND2X1
AINVX1_66 [w_C_18_] _432_ d_lut_INVX1
AOR2X2_15 [i_add2_18_ i_add1_18_] _433_ d_lut_OR2X2
ANAND2X1_29 [i_add2_18_ i_add1_18_] _434_ d_lut_NAND2X1
ANAND3X1_30 [_432_ _434_ _433_] _435_ d_lut_NAND3X1
ANOR2X1_36 [i_add2_18_ i_add1_18_] _429_ d_lut_NOR2X1
AAND2X2_23 [i_add2_18_ i_add1_18_] _430_ d_lut_AND2X2
AOAI21X1_29 [_429_ _430_ w_C_18_] _431_ d_lut_OAI21X1
ANAND2X1_30 [_431_ _435_] _330__18_ d_lut_NAND2X1
AINVX1_67 [w_C_19_] _439_ d_lut_INVX1
AOR2X2_16 [i_add2_19_ i_add1_19_] _440_ d_lut_OR2X2
ANAND2X1_31 [i_add2_19_ i_add1_19_] _441_ d_lut_NAND2X1
ANAND3X1_31 [_439_ _441_ _440_] _442_ d_lut_NAND3X1
ANOR2X1_37 [i_add2_19_ i_add1_19_] _436_ d_lut_NOR2X1
AAND2X2_24 [i_add2_19_ i_add1_19_] _437_ d_lut_AND2X2
AOAI21X1_30 [_436_ _437_ w_C_19_] _438_ d_lut_OAI21X1
ANAND2X1_32 [_438_ _442_] _330__19_ d_lut_NAND2X1
AINVX1_68 [w_C_20_] _446_ d_lut_INVX1
AOR2X2_17 [i_add2_20_ i_add1_20_] _447_ d_lut_OR2X2
ANAND2X1_33 [i_add2_20_ i_add1_20_] _448_ d_lut_NAND2X1
ANAND3X1_32 [_446_ _448_ _447_] _449_ d_lut_NAND3X1
ANOR2X1_38 [i_add2_20_ i_add1_20_] _443_ d_lut_NOR2X1
AAND2X2_25 [i_add2_20_ i_add1_20_] _444_ d_lut_AND2X2
AOAI21X1_31 [_443_ _444_ w_C_20_] _445_ d_lut_OAI21X1
ANAND2X1_34 [_445_ _449_] _330__20_ d_lut_NAND2X1
AINVX1_69 [w_C_21_] _453_ d_lut_INVX1
AOR2X2_18 [i_add2_21_ i_add1_21_] _454_ d_lut_OR2X2
ANAND2X1_35 [i_add2_21_ i_add1_21_] _455_ d_lut_NAND2X1
ANAND3X1_33 [_453_ _455_ _454_] _456_ d_lut_NAND3X1
ANOR2X1_39 [i_add2_21_ i_add1_21_] _450_ d_lut_NOR2X1
AAND2X2_26 [i_add2_21_ i_add1_21_] _451_ d_lut_AND2X2
AOAI21X1_32 [_450_ _451_ w_C_21_] _452_ d_lut_OAI21X1
ANAND2X1_36 [_452_ _456_] _330__21_ d_lut_NAND2X1
AINVX1_70 [w_C_22_] _460_ d_lut_INVX1
AOR2X2_19 [i_add2_22_ i_add1_22_] _461_ d_lut_OR2X2
ANAND2X1_37 [i_add2_22_ i_add1_22_] _462_ d_lut_NAND2X1
ANAND3X1_34 [_460_ _462_ _461_] _463_ d_lut_NAND3X1
ANOR2X1_40 [i_add2_22_ i_add1_22_] _457_ d_lut_NOR2X1
AAND2X2_27 [i_add2_22_ i_add1_22_] _458_ d_lut_AND2X2
AOAI21X1_33 [_457_ _458_ w_C_22_] _459_ d_lut_OAI21X1
ANAND2X1_38 [_459_ _463_] _330__22_ d_lut_NAND2X1
AINVX1_71 [w_C_23_] _467_ d_lut_INVX1
AOR2X2_20 [i_add2_23_ i_add1_23_] _468_ d_lut_OR2X2
ANAND2X1_39 [i_add2_23_ i_add1_23_] _469_ d_lut_NAND2X1
ANAND3X1_35 [_467_ _469_ _468_] _470_ d_lut_NAND3X1
ANOR2X1_41 [i_add2_23_ i_add1_23_] _464_ d_lut_NOR2X1
AAND2X2_28 [i_add2_23_ i_add1_23_] _465_ d_lut_AND2X2
AOAI21X1_34 [_464_ _465_ w_C_23_] _466_ d_lut_OAI21X1
ANAND2X1_40 [_466_ _470_] _330__23_ d_lut_NAND2X1
AINVX1_72 [w_C_24_] _474_ d_lut_INVX1
AOR2X2_21 [i_add2_24_ i_add1_24_] _475_ d_lut_OR2X2
ANAND2X1_41 [i_add2_24_ i_add1_24_] _476_ d_lut_NAND2X1
ANAND3X1_36 [_474_ _476_ _475_] _477_ d_lut_NAND3X1
ANOR2X1_42 [i_add2_24_ i_add1_24_] _471_ d_lut_NOR2X1
AAND2X2_29 [i_add2_24_ i_add1_24_] _472_ d_lut_AND2X2
AOAI21X1_35 [_471_ _472_ w_C_24_] _473_ d_lut_OAI21X1
ANAND2X1_42 [_473_ _477_] _330__24_ d_lut_NAND2X1
AINVX1_73 [w_C_25_] _481_ d_lut_INVX1
AOR2X2_22 [i_add2_25_ i_add1_25_] _482_ d_lut_OR2X2
ANAND2X1_43 [i_add2_25_ i_add1_25_] _483_ d_lut_NAND2X1
ANAND3X1_37 [_481_ _483_ _482_] _484_ d_lut_NAND3X1
ANOR2X1_43 [i_add2_25_ i_add1_25_] _478_ d_lut_NOR2X1
AAND2X2_30 [i_add2_25_ i_add1_25_] _479_ d_lut_AND2X2
AOAI21X1_36 [_478_ _479_ w_C_25_] _480_ d_lut_OAI21X1
ANAND2X1_44 [_480_ _484_] _330__25_ d_lut_NAND2X1
AINVX1_74 [w_C_26_] _488_ d_lut_INVX1
AOR2X2_23 [i_add2_26_ i_add1_26_] _489_ d_lut_OR2X2
ANAND2X1_45 [i_add2_26_ i_add1_26_] _490_ d_lut_NAND2X1
ANAND3X1_38 [_488_ _490_ _489_] _491_ d_lut_NAND3X1
ANOR2X1_44 [i_add2_26_ i_add1_26_] _485_ d_lut_NOR2X1
AAND2X2_31 [i_add2_26_ i_add1_26_] _486_ d_lut_AND2X2
AOAI21X1_37 [_485_ _486_ w_C_26_] _487_ d_lut_OAI21X1
ANAND2X1_46 [_487_ _491_] _330__26_ d_lut_NAND2X1
AINVX1_75 [w_C_27_] _495_ d_lut_INVX1
AOR2X2_24 [i_add2_27_ i_add1_27_] _496_ d_lut_OR2X2
ANAND2X1_47 [i_add2_27_ i_add1_27_] _497_ d_lut_NAND2X1
ANAND3X1_39 [_495_ _497_ _496_] _498_ d_lut_NAND3X1
ANOR2X1_45 [i_add2_27_ i_add1_27_] _492_ d_lut_NOR2X1
AAND2X2_32 [i_add2_27_ i_add1_27_] _493_ d_lut_AND2X2
AOAI21X1_38 [_492_ _493_ w_C_27_] _494_ d_lut_OAI21X1
ANAND2X1_48 [_494_ _498_] _330__27_ d_lut_NAND2X1
AINVX1_76 [w_C_28_] _502_ d_lut_INVX1
AOR2X2_25 [i_add2_28_ i_add1_28_] _503_ d_lut_OR2X2
ANAND2X1_49 [i_add2_28_ i_add1_28_] _504_ d_lut_NAND2X1
ANAND3X1_40 [_502_ _504_ _503_] _505_ d_lut_NAND3X1
ANOR2X1_46 [i_add2_28_ i_add1_28_] _499_ d_lut_NOR2X1
AAND2X2_33 [i_add2_28_ i_add1_28_] _500_ d_lut_AND2X2
AOAI21X1_39 [_499_ _500_ w_C_28_] _501_ d_lut_OAI21X1
ANAND2X1_50 [_501_ _505_] _330__28_ d_lut_NAND2X1
AINVX1_77 [w_C_29_] _509_ d_lut_INVX1
AOR2X2_26 [i_add2_29_ i_add1_29_] _510_ d_lut_OR2X2
ANAND2X1_51 [i_add2_29_ i_add1_29_] _511_ d_lut_NAND2X1
ANAND3X1_41 [_509_ _511_ _510_] _512_ d_lut_NAND3X1
ANOR2X1_47 [i_add2_29_ i_add1_29_] _506_ d_lut_NOR2X1
AAND2X2_34 [i_add2_29_ i_add1_29_] _507_ d_lut_AND2X2
AOAI21X1_40 [_506_ _507_ w_C_29_] _508_ d_lut_OAI21X1
ANAND2X1_52 [_508_ _512_] _330__29_ d_lut_NAND2X1
AINVX1_78 [w_C_30_] _516_ d_lut_INVX1
AOR2X2_27 [i_add2_30_ i_add1_30_] _517_ d_lut_OR2X2
ANAND2X1_53 [i_add2_30_ i_add1_30_] _518_ d_lut_NAND2X1
ANAND3X1_42 [_516_ _518_ _517_] _519_ d_lut_NAND3X1
ANOR2X1_48 [i_add2_30_ i_add1_30_] _513_ d_lut_NOR2X1
AAND2X2_35 [i_add2_30_ i_add1_30_] _514_ d_lut_AND2X2
AOAI21X1_41 [_513_ _514_ w_C_30_] _515_ d_lut_OAI21X1
ANAND2X1_54 [_515_ _519_] _330__30_ d_lut_NAND2X1
AINVX1_79 [w_C_31_] _523_ d_lut_INVX1
AOR2X2_28 [i_add2_31_ i_add1_31_] _524_ d_lut_OR2X2
ANAND2X1_55 [i_add2_31_ i_add1_31_] _525_ d_lut_NAND2X1
ANAND3X1_43 [_523_ _525_ _524_] _526_ d_lut_NAND3X1
ANOR2X1_49 [i_add2_31_ i_add1_31_] _520_ d_lut_NOR2X1
AAND2X2_36 [i_add2_31_ i_add1_31_] _521_ d_lut_AND2X2
AOAI21X1_42 [_520_ _521_ w_C_31_] _522_ d_lut_OAI21X1
ANAND2X1_56 [_522_ _526_] _330__31_ d_lut_NAND2X1
AINVX1_80 [w_C_32_] _530_ d_lut_INVX1
AOR2X2_29 [i_add2_32_ i_add1_32_] _531_ d_lut_OR2X2
ANAND2X1_57 [i_add2_32_ i_add1_32_] _532_ d_lut_NAND2X1
ANAND3X1_44 [_530_ _532_ _531_] _533_ d_lut_NAND3X1
ANOR2X1_50 [i_add2_32_ i_add1_32_] _527_ d_lut_NOR2X1
AAND2X2_37 [i_add2_32_ i_add1_32_] _528_ d_lut_AND2X2
AOAI21X1_43 [_527_ _528_ w_C_32_] _529_ d_lut_OAI21X1
ANAND2X1_58 [_529_ _533_] _330__32_ d_lut_NAND2X1
AINVX1_81 [w_C_33_] _537_ d_lut_INVX1
AOR2X2_30 [i_add2_33_ i_add1_33_] _538_ d_lut_OR2X2
ANAND2X1_59 [i_add2_33_ i_add1_33_] _539_ d_lut_NAND2X1
ANAND3X1_45 [_537_ _539_ _538_] _540_ d_lut_NAND3X1
ANOR2X1_51 [i_add2_33_ i_add1_33_] _534_ d_lut_NOR2X1
AAND2X2_38 [i_add2_33_ i_add1_33_] _535_ d_lut_AND2X2
AOAI21X1_44 [_534_ _535_ w_C_33_] _536_ d_lut_OAI21X1
ANAND2X1_60 [_536_ _540_] _330__33_ d_lut_NAND2X1
AINVX1_82 [w_C_34_] _544_ d_lut_INVX1
AOR2X2_31 [i_add2_34_ i_add1_34_] _545_ d_lut_OR2X2
ANAND2X1_61 [i_add2_34_ i_add1_34_] _546_ d_lut_NAND2X1
ANAND3X1_46 [_544_ _546_ _545_] _547_ d_lut_NAND3X1
ANOR2X1_52 [i_add2_34_ i_add1_34_] _541_ d_lut_NOR2X1
AAND2X2_39 [i_add2_34_ i_add1_34_] _542_ d_lut_AND2X2
AOAI21X1_45 [_541_ _542_ w_C_34_] _543_ d_lut_OAI21X1
ANAND2X1_62 [_543_ _547_] _330__34_ d_lut_NAND2X1
AINVX1_83 [w_C_35_] _551_ d_lut_INVX1
AOR2X2_32 [i_add2_35_ i_add1_35_] _552_ d_lut_OR2X2
ANAND2X1_63 [i_add2_35_ i_add1_35_] _553_ d_lut_NAND2X1
ANAND3X1_47 [_551_ _553_ _552_] _554_ d_lut_NAND3X1
ANOR2X1_53 [i_add2_35_ i_add1_35_] _548_ d_lut_NOR2X1
AAND2X2_40 [i_add2_35_ i_add1_35_] _549_ d_lut_AND2X2
AOAI21X1_46 [_548_ _549_ w_C_35_] _550_ d_lut_OAI21X1
ANAND2X1_64 [_550_ _554_] _330__35_ d_lut_NAND2X1
AINVX1_84 [w_C_36_] _558_ d_lut_INVX1
AOR2X2_33 [i_add2_36_ i_add1_36_] _559_ d_lut_OR2X2
ANAND2X1_65 [i_add2_36_ i_add1_36_] _560_ d_lut_NAND2X1
ANAND3X1_48 [_558_ _560_ _559_] _561_ d_lut_NAND3X1
ANOR2X1_54 [i_add2_36_ i_add1_36_] _555_ d_lut_NOR2X1
AAND2X2_41 [i_add2_36_ i_add1_36_] _556_ d_lut_AND2X2
AOAI21X1_47 [_555_ _556_ w_C_36_] _557_ d_lut_OAI21X1
ANAND2X1_66 [_557_ _561_] _330__36_ d_lut_NAND2X1
AINVX1_85 [w_C_37_] _565_ d_lut_INVX1
AOR2X2_34 [i_add2_37_ i_add1_37_] _566_ d_lut_OR2X2
ANAND2X1_67 [i_add2_37_ i_add1_37_] _567_ d_lut_NAND2X1
ANAND3X1_49 [_565_ _567_ _566_] _568_ d_lut_NAND3X1
ANOR2X1_55 [i_add2_37_ i_add1_37_] _562_ d_lut_NOR2X1
AAND2X2_42 [i_add2_37_ i_add1_37_] _563_ d_lut_AND2X2
AOAI21X1_48 [_562_ _563_ w_C_37_] _564_ d_lut_OAI21X1
ANAND2X1_68 [_564_ _568_] _330__37_ d_lut_NAND2X1
AINVX1_86 [w_C_38_] _572_ d_lut_INVX1
AOR2X2_35 [i_add2_38_ i_add1_38_] _573_ d_lut_OR2X2
ANAND2X1_69 [i_add2_38_ i_add1_38_] _574_ d_lut_NAND2X1
ANAND3X1_50 [_572_ _574_ _573_] _575_ d_lut_NAND3X1
ANOR2X1_56 [i_add2_38_ i_add1_38_] _569_ d_lut_NOR2X1
AAND2X2_43 [i_add2_38_ i_add1_38_] _570_ d_lut_AND2X2
AOAI21X1_49 [_569_ _570_ w_C_38_] _571_ d_lut_OAI21X1
ANAND2X1_70 [_571_ _575_] _330__38_ d_lut_NAND2X1
AINVX1_87 [w_C_39_] _579_ d_lut_INVX1
AOR2X2_36 [i_add2_39_ i_add1_39_] _580_ d_lut_OR2X2
ANAND2X1_71 [i_add2_39_ i_add1_39_] _581_ d_lut_NAND2X1
ANAND3X1_51 [_579_ _581_ _580_] _582_ d_lut_NAND3X1
ANOR2X1_57 [i_add2_39_ i_add1_39_] _576_ d_lut_NOR2X1
AAND2X2_44 [i_add2_39_ i_add1_39_] _577_ d_lut_AND2X2
AOAI21X1_50 [_576_ _577_ w_C_39_] _578_ d_lut_OAI21X1
ANAND2X1_72 [_578_ _582_] _330__39_ d_lut_NAND2X1
AINVX1_88 [w_C_40_] _586_ d_lut_INVX1
AOR2X2_37 [i_add2_40_ i_add1_40_] _587_ d_lut_OR2X2
ANAND2X1_73 [i_add2_40_ i_add1_40_] _588_ d_lut_NAND2X1
ANAND3X1_52 [_586_ _588_ _587_] _589_ d_lut_NAND3X1
ANOR2X1_58 [i_add2_40_ i_add1_40_] _583_ d_lut_NOR2X1
AAND2X2_45 [i_add2_40_ i_add1_40_] _584_ d_lut_AND2X2
AOAI21X1_51 [_583_ _584_ w_C_40_] _585_ d_lut_OAI21X1
ANAND2X1_74 [_585_ _589_] _330__40_ d_lut_NAND2X1
AINVX1_89 [w_C_41_] _593_ d_lut_INVX1
AOR2X2_38 [i_add2_41_ i_add1_41_] _594_ d_lut_OR2X2
ANAND2X1_75 [i_add2_41_ i_add1_41_] _595_ d_lut_NAND2X1
ANAND3X1_53 [_593_ _595_ _594_] _596_ d_lut_NAND3X1
ANOR2X1_59 [i_add2_41_ i_add1_41_] _590_ d_lut_NOR2X1
AAND2X2_46 [i_add2_41_ i_add1_41_] _591_ d_lut_AND2X2
AOAI21X1_52 [_590_ _591_ w_C_41_] _592_ d_lut_OAI21X1
ANAND2X1_76 [_592_ _596_] _330__41_ d_lut_NAND2X1
AINVX1_90 [w_C_42_] _600_ d_lut_INVX1
AOR2X2_39 [i_add2_42_ i_add1_42_] _601_ d_lut_OR2X2
ANAND2X1_77 [i_add2_42_ i_add1_42_] _602_ d_lut_NAND2X1
ANAND3X1_54 [_600_ _602_ _601_] _603_ d_lut_NAND3X1
ANOR2X1_60 [i_add2_42_ i_add1_42_] _597_ d_lut_NOR2X1
AAND2X2_47 [i_add2_42_ i_add1_42_] _598_ d_lut_AND2X2
AOAI21X1_53 [_597_ _598_ w_C_42_] _599_ d_lut_OAI21X1
ANAND2X1_78 [_599_ _603_] _330__42_ d_lut_NAND2X1
AINVX1_91 [w_C_43_] _607_ d_lut_INVX1
AOR2X2_40 [i_add2_43_ i_add1_43_] _608_ d_lut_OR2X2
ANAND2X1_79 [i_add2_43_ i_add1_43_] _609_ d_lut_NAND2X1
ANAND3X1_55 [_607_ _609_ _608_] _610_ d_lut_NAND3X1
ANOR2X1_61 [i_add2_43_ i_add1_43_] _604_ d_lut_NOR2X1
AAND2X2_48 [i_add2_43_ i_add1_43_] _605_ d_lut_AND2X2
AOAI21X1_54 [_604_ _605_ w_C_43_] _606_ d_lut_OAI21X1
ANAND2X1_80 [_606_ _610_] _330__43_ d_lut_NAND2X1
AINVX1_92 [w_C_44_] _614_ d_lut_INVX1
AOR2X2_41 [i_add2_44_ i_add1_44_] _615_ d_lut_OR2X2
ANAND2X1_81 [i_add2_44_ i_add1_44_] _616_ d_lut_NAND2X1
ANAND3X1_56 [_614_ _616_ _615_] _617_ d_lut_NAND3X1
ANOR2X1_62 [i_add2_44_ i_add1_44_] _611_ d_lut_NOR2X1
AAND2X2_49 [i_add2_44_ i_add1_44_] _612_ d_lut_AND2X2
AOAI21X1_55 [_611_ _612_ w_C_44_] _613_ d_lut_OAI21X1
ANAND2X1_82 [_613_ _617_] _330__44_ d_lut_NAND2X1
AINVX1_93 [w_C_45_] _621_ d_lut_INVX1
AOR2X2_42 [i_add2_45_ i_add1_45_] _622_ d_lut_OR2X2
ANAND2X1_83 [i_add2_45_ i_add1_45_] _623_ d_lut_NAND2X1
ANAND3X1_57 [_621_ _623_ _622_] _624_ d_lut_NAND3X1
ANOR2X1_63 [i_add2_45_ i_add1_45_] _618_ d_lut_NOR2X1
AAND2X2_50 [i_add2_45_ i_add1_45_] _619_ d_lut_AND2X2
AOAI21X1_56 [_618_ _619_ w_C_45_] _620_ d_lut_OAI21X1
ANAND2X1_84 [_620_ _624_] _330__45_ d_lut_NAND2X1
AINVX1_94 [w_C_46_] _628_ d_lut_INVX1
AOR2X2_43 [i_add2_46_ i_add1_46_] _629_ d_lut_OR2X2
ANAND2X1_85 [i_add2_46_ i_add1_46_] _630_ d_lut_NAND2X1
ANAND3X1_58 [_628_ _630_ _629_] _631_ d_lut_NAND3X1
ANOR2X1_64 [i_add2_46_ i_add1_46_] _625_ d_lut_NOR2X1
AAND2X2_51 [i_add2_46_ i_add1_46_] _626_ d_lut_AND2X2
AOAI21X1_57 [_625_ _626_ w_C_46_] _627_ d_lut_OAI21X1
ANAND2X1_86 [_627_ _631_] _330__46_ d_lut_NAND2X1
AINVX1_95 [w_C_47_] _635_ d_lut_INVX1
AOR2X2_44 [i_add2_47_ i_add1_47_] _636_ d_lut_OR2X2
ANAND2X1_87 [i_add2_47_ i_add1_47_] _637_ d_lut_NAND2X1
ANAND3X1_59 [_635_ _637_ _636_] _638_ d_lut_NAND3X1
ANOR2X1_65 [i_add2_47_ i_add1_47_] _632_ d_lut_NOR2X1
AAND2X2_52 [i_add2_47_ i_add1_47_] _633_ d_lut_AND2X2
AOAI21X1_58 [_632_ _633_ w_C_47_] _634_ d_lut_OAI21X1
ANAND2X1_88 [_634_ _638_] _330__47_ d_lut_NAND2X1
AINVX1_96 [w_C_48_] _642_ d_lut_INVX1
AOR2X2_45 [i_add2_48_ i_add1_48_] _643_ d_lut_OR2X2
ANAND2X1_89 [i_add2_48_ i_add1_48_] _644_ d_lut_NAND2X1
ANAND3X1_60 [_642_ _644_ _643_] _645_ d_lut_NAND3X1
ANOR2X1_66 [i_add2_48_ i_add1_48_] _639_ d_lut_NOR2X1
AAND2X2_53 [i_add2_48_ i_add1_48_] _640_ d_lut_AND2X2
AOAI21X1_59 [_639_ _640_ w_C_48_] _641_ d_lut_OAI21X1
ANAND2X1_90 [_641_ _645_] _330__48_ d_lut_NAND2X1
AINVX1_97 [w_C_49_] _649_ d_lut_INVX1
AOR2X2_46 [i_add2_49_ i_add1_49_] _650_ d_lut_OR2X2
ANAND2X1_91 [i_add2_49_ i_add1_49_] _651_ d_lut_NAND2X1
ANAND3X1_61 [_649_ _651_ _650_] _652_ d_lut_NAND3X1
ANOR2X1_67 [i_add2_49_ i_add1_49_] _646_ d_lut_NOR2X1
AAND2X2_54 [i_add2_49_ i_add1_49_] _647_ d_lut_AND2X2
AOAI21X1_60 [_646_ _647_ w_C_49_] _648_ d_lut_OAI21X1
ANAND2X1_92 [_648_ _652_] _330__49_ d_lut_NAND2X1
AINVX1_98 [w_C_50_] _656_ d_lut_INVX1
AOR2X2_47 [i_add2_50_ i_add1_50_] _657_ d_lut_OR2X2
ANAND2X1_93 [i_add2_50_ i_add1_50_] _658_ d_lut_NAND2X1
ANAND3X1_62 [_656_ _658_ _657_] _659_ d_lut_NAND3X1
ANOR2X1_68 [i_add2_50_ i_add1_50_] _653_ d_lut_NOR2X1
AAND2X2_55 [i_add2_50_ i_add1_50_] _654_ d_lut_AND2X2
AOAI21X1_61 [_653_ _654_ w_C_50_] _655_ d_lut_OAI21X1
ANAND2X1_94 [_655_ _659_] _330__50_ d_lut_NAND2X1
AINVX1_99 [w_C_51_] _663_ d_lut_INVX1
AOR2X2_48 [i_add2_51_ i_add1_51_] _664_ d_lut_OR2X2
ANAND2X1_95 [i_add2_51_ i_add1_51_] _665_ d_lut_NAND2X1
ANAND3X1_63 [_663_ _665_ _664_] _666_ d_lut_NAND3X1
ANOR2X1_69 [i_add2_51_ i_add1_51_] _660_ d_lut_NOR2X1
AAND2X2_56 [i_add2_51_ i_add1_51_] _661_ d_lut_AND2X2
AOAI21X1_62 [_660_ _661_ w_C_51_] _662_ d_lut_OAI21X1
ANAND2X1_96 [_662_ _666_] _330__51_ d_lut_NAND2X1
AINVX1_100 [w_C_52_] _670_ d_lut_INVX1
AOR2X2_49 [i_add2_52_ i_add1_52_] _671_ d_lut_OR2X2
ANAND2X1_97 [i_add2_52_ i_add1_52_] _672_ d_lut_NAND2X1
ANAND3X1_64 [_670_ _672_ _671_] _673_ d_lut_NAND3X1
ANOR2X1_70 [i_add2_52_ i_add1_52_] _667_ d_lut_NOR2X1
AAND2X2_57 [i_add2_52_ i_add1_52_] _668_ d_lut_AND2X2
AOAI21X1_63 [_667_ _668_ w_C_52_] _669_ d_lut_OAI21X1
ANAND2X1_98 [_669_ _673_] _330__52_ d_lut_NAND2X1
AINVX1_101 [w_C_53_] _677_ d_lut_INVX1
AOR2X2_50 [i_add2_53_ i_add1_53_] _678_ d_lut_OR2X2