*SPICE netlist created from BLIF module cla_53bit by blif2BSpice
.include /usr/local/share/qflow/tech/osu035/osu035_stdcells.sp
.subckt cla_53bit vdd gnd i_add1[0] i_add1[1] i_add1[2] i_add1[3] i_add1[4] i_add1[5] i_add1[6] i_add1[7] i_add1[8] i_add1[9] i_add1[10] i_add1[11] i_add1[12] i_add1[13] i_add1[14] i_add1[15] i_add1[16] i_add1[17] i_add1[18] i_add1[19] i_add1[20] i_add1[21] i_add1[22] i_add1[23] i_add1[24] i_add1[25] i_add1[26] i_add1[27] i_add1[28] i_add1[29] i_add1[30] i_add1[31] i_add1[32] i_add1[33] i_add1[34] i_add1[35] i_add1[36] i_add1[37] i_add1[38] i_add1[39] i_add1[40] i_add1[41] i_add1[42] i_add1[43] i_add1[44] i_add1[45] i_add1[46] i_add1[47] i_add1[48] i_add1[49] i_add1[50] i_add1[51] i_add1[52] i_add2[0] i_add2[1] i_add2[2] i_add2[3] i_add2[4] i_add2[5] i_add2[6] i_add2[7] i_add2[8] i_add2[9] i_add2[10] i_add2[11] i_add2[12] i_add2[13] i_add2[14] i_add2[15] i_add2[16] i_add2[17] i_add2[18] i_add2[19] i_add2[20] i_add2[21] i_add2[22] i_add2[23] i_add2[24] i_add2[25] i_add2[26] i_add2[27] i_add2[28] i_add2[29] i_add2[30] i_add2[31] i_add2[32] i_add2[33] i_add2[34] i_add2[35] i_add2[36] i_add2[37] i_add2[38] i_add2[39] i_add2[40] i_add2[41] i_add2[42] i_add2[43] i_add2[44] i_add2[45] i_add2[46] i_add2[47] i_add2[48] i_add2[49] i_add2[50] i_add2[51] i_add2[52] o_result[0] o_result[1] o_result[2] o_result[3] o_result[4] o_result[5] o_result[6] o_result[7] o_result[8] o_result[9] o_result[10] o_result[11] o_result[12] o_result[13] o_result[14] o_result[15] o_result[16] o_result[17] o_result[18] o_result[19] o_result[20] o_result[21] o_result[22] o_result[23] o_result[24] o_result[25] o_result[26] o_result[27] o_result[28] o_result[29] o_result[30] o_result[31] o_result[32] o_result[33] o_result[34] o_result[35] o_result[36] o_result[37] o_result[38] o_result[39] o_result[40] o_result[41] o_result[42] o_result[43] o_result[44] o_result[45] o_result[46] o_result[47] o_result[48] o_result[49] o_result[50] o_result[51] o_result[52] o_result[53] 
XINVX1_1 i_add1[18] _99_ vdd gnd INVX1
XNOR2X1_1 vdd _99_ gnd _100_ _98_ NOR2X1
XINVX1_2 _100_ _101_ vdd gnd INVX1
XNOR2X1_2 vdd i_add1[17] gnd _102_ i_add2[17] NOR2X1
XINVX1_3 _102_ _103_ vdd gnd INVX1
XNOR2X1_3 vdd i_add1[18] gnd _104_ i_add2[18] NOR2X1
XINVX1_4 _104_ _105_ vdd gnd INVX1
XNAND3X1_1 _105_ vdd gnd _103_ _96_ _106_ NAND3X1
XAND2X2_1 vdd gnd _106_ _101_ _107_ AND2X2
XINVX1_5 _107_ w_C[19] vdd gnd INVX1
XAND2X2_2 vdd gnd i_add2[19] i_add1[19] _108_ AND2X2
XINVX1_6 _108_ _109_ vdd gnd INVX1
XNAND3X1_2 _109_ vdd gnd _101_ _106_ _110_ NAND3X1
XOAI21X1_1 gnd vdd i_add2[19] i_add1[19] _111_ _110_ OAI21X1
XINVX1_7 _111_ w_C[20] vdd gnd INVX1
XINVX1_8 i_add2[20] _112_ vdd gnd INVX1
XINVX1_9 i_add1[20] _113_ vdd gnd INVX1
XNOR2X1_4 vdd _113_ gnd _114_ _112_ NOR2X1
XINVX1_10 _114_ _115_ vdd gnd INVX1
XNOR2X1_5 vdd i_add1[19] gnd _116_ i_add2[19] NOR2X1
XINVX1_11 _116_ _117_ vdd gnd INVX1
XNOR2X1_6 vdd i_add1[20] gnd _118_ i_add2[20] NOR2X1
XINVX1_12 _118_ _119_ vdd gnd INVX1
XNAND3X1_3 _119_ vdd gnd _117_ _110_ _120_ NAND3X1
XAND2X2_3 vdd gnd _120_ _115_ _121_ AND2X2
XINVX1_13 _121_ w_C[21] vdd gnd INVX1
XAND2X2_4 vdd gnd i_add2[21] i_add1[21] _122_ AND2X2
XINVX1_14 _122_ _123_ vdd gnd INVX1
XNAND3X1_4 _123_ vdd gnd _115_ _120_ _124_ NAND3X1
XOAI21X1_2 gnd vdd i_add2[21] i_add1[21] _125_ _124_ OAI21X1
XINVX1_15 _125_ w_C[22] vdd gnd INVX1
XINVX1_16 i_add2[22] _126_ vdd gnd INVX1
XINVX1_17 i_add1[22] _127_ vdd gnd INVX1
XNOR2X1_7 vdd _127_ gnd _128_ _126_ NOR2X1
XINVX1_18 _128_ _129_ vdd gnd INVX1
XNOR2X1_8 vdd i_add1[21] gnd _130_ i_add2[21] NOR2X1
XINVX1_19 _130_ _131_ vdd gnd INVX1
XNOR2X1_9 vdd i_add1[22] gnd _132_ i_add2[22] NOR2X1
XINVX1_20 _132_ _133_ vdd gnd INVX1
XNAND3X1_5 _133_ vdd gnd _131_ _124_ _134_ NAND3X1
XAND2X2_5 vdd gnd _134_ _129_ _135_ AND2X2
XINVX1_21 _135_ w_C[23] vdd gnd INVX1
XAND2X2_6 vdd gnd i_add2[23] i_add1[23] _136_ AND2X2
XINVX1_22 _136_ _137_ vdd gnd INVX1
XNAND3X1_6 _137_ vdd gnd _129_ _134_ _138_ NAND3X1
XOAI21X1_3 gnd vdd i_add2[23] i_add1[23] _139_ _138_ OAI21X1
XINVX1_23 _139_ w_C[24] vdd gnd INVX1
XINVX1_24 i_add2[24] _140_ vdd gnd INVX1
XINVX1_25 i_add1[24] _141_ vdd gnd INVX1
XNOR2X1_10 vdd _141_ gnd _142_ _140_ NOR2X1
XINVX1_26 _142_ _143_ vdd gnd INVX1
XNOR2X1_11 vdd i_add1[23] gnd _144_ i_add2[23] NOR2X1
XINVX1_27 _144_ _145_ vdd gnd INVX1
XNOR2X1_12 vdd i_add1[24] gnd _146_ i_add2[24] NOR2X1
XINVX1_28 _146_ _147_ vdd gnd INVX1
XNAND3X1_7 _147_ vdd gnd _145_ _138_ _148_ NAND3X1
XAND2X2_7 vdd gnd _148_ _143_ _149_ AND2X2
XINVX1_29 _149_ w_C[25] vdd gnd INVX1
XAND2X2_8 vdd gnd i_add2[25] i_add1[25] _150_ AND2X2
XINVX1_30 _150_ _151_ vdd gnd INVX1
XNAND3X1_8 _151_ vdd gnd _143_ _148_ _152_ NAND3X1
XOAI21X1_4 gnd vdd i_add2[25] i_add1[25] _153_ _152_ OAI21X1
XINVX1_31 _153_ w_C[26] vdd gnd INVX1
XBUFX2_1 vdd gnd _319_[0] o_result[0] BUFX2
XBUFX2_2 vdd gnd _319_[1] o_result[1] BUFX2
XBUFX2_3 vdd gnd _319_[2] o_result[2] BUFX2
XBUFX2_4 vdd gnd _319_[3] o_result[3] BUFX2
XBUFX2_5 vdd gnd _319_[4] o_result[4] BUFX2
XBUFX2_6 vdd gnd _319_[5] o_result[5] BUFX2
XBUFX2_7 vdd gnd _319_[6] o_result[6] BUFX2
XBUFX2_8 vdd gnd _319_[7] o_result[7] BUFX2
XBUFX2_9 vdd gnd _319_[8] o_result[8] BUFX2
XBUFX2_10 vdd gnd _319_[9] o_result[9] BUFX2
XBUFX2_11 vdd gnd _319_[10] o_result[10] BUFX2
XBUFX2_12 vdd gnd _319_[11] o_result[11] BUFX2
XBUFX2_13 vdd gnd _319_[12] o_result[12] BUFX2
XBUFX2_14 vdd gnd _319_[13] o_result[13] BUFX2
XBUFX2_15 vdd gnd _319_[14] o_result[14] BUFX2
XBUFX2_16 vdd gnd _319_[15] o_result[15] BUFX2
XBUFX2_17 vdd gnd _319_[16] o_result[16] BUFX2
XBUFX2_18 vdd gnd _319_[17] o_result[17] BUFX2
XBUFX2_19 vdd gnd _319_[18] o_result[18] BUFX2
XBUFX2_20 vdd gnd _319_[19] o_result[19] BUFX2
XBUFX2_21 vdd gnd _319_[20] o_result[20] BUFX2
XBUFX2_22 vdd gnd _319_[21] o_result[21] BUFX2
XBUFX2_23 vdd gnd _319_[22] o_result[22] BUFX2
XBUFX2_24 vdd gnd _319_[23] o_result[23] BUFX2
XBUFX2_25 vdd gnd _319_[24] o_result[24] BUFX2
XBUFX2_26 vdd gnd _319_[25] o_result[25] BUFX2
XBUFX2_27 vdd gnd _319_[26] o_result[26] BUFX2
XBUFX2_28 vdd gnd _319_[27] o_result[27] BUFX2
XBUFX2_29 vdd gnd _319_[28] o_result[28] BUFX2
XBUFX2_30 vdd gnd _319_[29] o_result[29] BUFX2
XBUFX2_31 vdd gnd _319_[30] o_result[30] BUFX2
XBUFX2_32 vdd gnd _319_[31] o_result[31] BUFX2
XBUFX2_33 vdd gnd _319_[32] o_result[32] BUFX2
XBUFX2_34 vdd gnd _319_[33] o_result[33] BUFX2
XBUFX2_35 vdd gnd _319_[34] o_result[34] BUFX2
XBUFX2_36 vdd gnd _319_[35] o_result[35] BUFX2
XBUFX2_37 vdd gnd _319_[36] o_result[36] BUFX2
XBUFX2_38 vdd gnd _319_[37] o_result[37] BUFX2
XBUFX2_39 vdd gnd _319_[38] o_result[38] BUFX2
XBUFX2_40 vdd gnd _319_[39] o_result[39] BUFX2
XBUFX2_41 vdd gnd _319_[40] o_result[40] BUFX2
XBUFX2_42 vdd gnd _319_[41] o_result[41] BUFX2
XBUFX2_43 vdd gnd _319_[42] o_result[42] BUFX2
XBUFX2_44 vdd gnd _319_[43] o_result[43] BUFX2
XBUFX2_45 vdd gnd _319_[44] o_result[44] BUFX2
XBUFX2_46 vdd gnd _319_[45] o_result[45] BUFX2
XBUFX2_47 vdd gnd _319_[46] o_result[46] BUFX2
XBUFX2_48 vdd gnd _319_[47] o_result[47] BUFX2
XBUFX2_49 vdd gnd _319_[48] o_result[48] BUFX2
XBUFX2_50 vdd gnd _319_[49] o_result[49] BUFX2
XBUFX2_51 vdd gnd _319_[50] o_result[50] BUFX2
XBUFX2_52 vdd gnd _319_[51] o_result[51] BUFX2
XBUFX2_53 vdd gnd _319_[52] o_result[52] BUFX2
XBUFX2_54 vdd gnd w_C[53] o_result[53] BUFX2
XINVX1_32 w_C[4] _323_ vdd gnd INVX1
XOR2X2_1 _324_ i_add1[4] vdd gnd i_add2[4] OR2X2
XNAND2X1_1 vdd _325_ gnd i_add2[4] i_add1[4] NAND2X1
XNAND3X1_9 _325_ vdd gnd _323_ _324_ _326_ NAND3X1
XNOR2X1_13 vdd i_add1[4] gnd _320_ i_add2[4] NOR2X1
XAND2X2_9 vdd gnd i_add2[4] i_add1[4] _321_ AND2X2
XOAI21X1_5 gnd vdd _320_ _321_ _322_ w_C[4] OAI21X1
XNAND2X1_2 vdd _319_[4] gnd _322_ _326_ NAND2X1
XINVX1_33 w_C[5] _330_ vdd gnd INVX1
XOR2X2_2 _331_ i_add1[5] vdd gnd i_add2[5] OR2X2
XNAND2X1_3 vdd _332_ gnd i_add2[5] i_add1[5] NAND2X1
XNAND3X1_10 _332_ vdd gnd _330_ _331_ _333_ NAND3X1
XNOR2X1_14 vdd i_add1[5] gnd _327_ i_add2[5] NOR2X1
XAND2X2_10 vdd gnd i_add2[5] i_add1[5] _328_ AND2X2
XOAI21X1_6 gnd vdd _327_ _328_ _329_ w_C[5] OAI21X1
XNAND2X1_4 vdd _319_[5] gnd _329_ _333_ NAND2X1
XINVX1_34 w_C[6] _337_ vdd gnd INVX1
XOR2X2_3 _338_ i_add1[6] vdd gnd i_add2[6] OR2X2
XNAND2X1_5 vdd _339_ gnd i_add2[6] i_add1[6] NAND2X1
XNAND3X1_11 _339_ vdd gnd _337_ _338_ _340_ NAND3X1
XNOR2X1_15 vdd i_add1[6] gnd _334_ i_add2[6] NOR2X1
XAND2X2_11 vdd gnd i_add2[6] i_add1[6] _335_ AND2X2
XOAI21X1_7 gnd vdd _334_ _335_ _336_ w_C[6] OAI21X1
XNAND2X1_6 vdd _319_[6] gnd _336_ _340_ NAND2X1
XINVX1_35 w_C[7] _344_ vdd gnd INVX1
XOR2X2_4 _345_ i_add1[7] vdd gnd i_add2[7] OR2X2
XNAND2X1_7 vdd _346_ gnd i_add2[7] i_add1[7] NAND2X1
XNAND3X1_12 _346_ vdd gnd _344_ _345_ _347_ NAND3X1
XNOR2X1_16 vdd i_add1[7] gnd _341_ i_add2[7] NOR2X1
XAND2X2_12 vdd gnd i_add2[7] i_add1[7] _342_ AND2X2
XOAI21X1_8 gnd vdd _341_ _342_ _343_ w_C[7] OAI21X1
XNAND2X1_8 vdd _319_[7] gnd _343_ _347_ NAND2X1
XINVX1_36 w_C[8] _351_ vdd gnd INVX1
XOR2X2_5 _352_ i_add1[8] vdd gnd i_add2[8] OR2X2
XNAND2X1_9 vdd _353_ gnd i_add2[8] i_add1[8] NAND2X1
XNAND3X1_13 _353_ vdd gnd _351_ _352_ _354_ NAND3X1
XNOR2X1_17 vdd i_add1[8] gnd _348_ i_add2[8] NOR2X1
XAND2X2_13 vdd gnd i_add2[8] i_add1[8] _349_ AND2X2
XOAI21X1_9 gnd vdd _348_ _349_ _350_ w_C[8] OAI21X1
XNAND2X1_10 vdd _319_[8] gnd _350_ _354_ NAND2X1
XINVX1_37 w_C[9] _358_ vdd gnd INVX1
XOR2X2_6 _359_ i_add1[9] vdd gnd i_add2[9] OR2X2
XNAND2X1_11 vdd _360_ gnd i_add2[9] i_add1[9] NAND2X1
XNAND3X1_14 _360_ vdd gnd _358_ _359_ _361_ NAND3X1
XNOR2X1_18 vdd i_add1[9] gnd _355_ i_add2[9] NOR2X1
XAND2X2_14 vdd gnd i_add2[9] i_add1[9] _356_ AND2X2
XOAI21X1_10 gnd vdd _355_ _356_ _357_ w_C[9] OAI21X1
XNAND2X1_12 vdd _319_[9] gnd _357_ _361_ NAND2X1
XINVX1_38 w_C[10] _365_ vdd gnd INVX1
XOR2X2_7 _366_ i_add1[10] vdd gnd i_add2[10] OR2X2
XNAND2X1_13 vdd _367_ gnd i_add2[10] i_add1[10] NAND2X1
XNAND3X1_15 _367_ vdd gnd _365_ _366_ _368_ NAND3X1
XNOR2X1_19 vdd i_add1[10] gnd _362_ i_add2[10] NOR2X1
XAND2X2_15 vdd gnd i_add2[10] i_add1[10] _363_ AND2X2
XOAI21X1_11 gnd vdd _362_ _363_ _364_ w_C[10] OAI21X1
XNAND2X1_14 vdd _319_[10] gnd _364_ _368_ NAND2X1
XINVX1_39 w_C[11] _372_ vdd gnd INVX1
XOR2X2_8 _373_ i_add1[11] vdd gnd i_add2[11] OR2X2
XNAND2X1_15 vdd _374_ gnd i_add2[11] i_add1[11] NAND2X1
XNAND3X1_16 _374_ vdd gnd _372_ _373_ _375_ NAND3X1
XNOR2X1_20 vdd i_add1[11] gnd _369_ i_add2[11] NOR2X1
XAND2X2_16 vdd gnd i_add2[11] i_add1[11] _370_ AND2X2
XOAI21X1_12 gnd vdd _369_ _370_ _371_ w_C[11] OAI21X1
XNAND2X1_16 vdd _319_[11] gnd _371_ _375_ NAND2X1
XINVX1_40 w_C[12] _379_ vdd gnd INVX1
XOR2X2_9 _380_ i_add1[12] vdd gnd i_add2[12] OR2X2
XNAND2X1_17 vdd _381_ gnd i_add2[12] i_add1[12] NAND2X1
XNAND3X1_17 _381_ vdd gnd _379_ _380_ _382_ NAND3X1
XNOR2X1_21 vdd i_add1[12] gnd _376_ i_add2[12] NOR2X1
XAND2X2_17 vdd gnd i_add2[12] i_add1[12] _377_ AND2X2
XOAI21X1_13 gnd vdd _376_ _377_ _378_ w_C[12] OAI21X1
XNAND2X1_18 vdd _319_[12] gnd _378_ _382_ NAND2X1
XINVX1_41 w_C[13] _386_ vdd gnd INVX1
XOR2X2_10 _387_ i_add1[13] vdd gnd i_add2[13] OR2X2
XNAND2X1_19 vdd _388_ gnd i_add2[13] i_add1[13] NAND2X1
XNAND3X1_18 _388_ vdd gnd _386_ _387_ _389_ NAND3X1
XNOR2X1_22 vdd i_add1[13] gnd _383_ i_add2[13] NOR2X1
XAND2X2_18 vdd gnd i_add2[13] i_add1[13] _384_ AND2X2
XOAI21X1_14 gnd vdd _383_ _384_ _385_ w_C[13] OAI21X1
XNAND2X1_20 vdd _319_[13] gnd _385_ _389_ NAND2X1
XINVX1_42 w_C[14] _393_ vdd gnd INVX1
XOR2X2_11 _394_ i_add1[14] vdd gnd i_add2[14] OR2X2
XNAND2X1_21 vdd _395_ gnd i_add2[14] i_add1[14] NAND2X1
XNAND3X1_19 _395_ vdd gnd _393_ _394_ _396_ NAND3X1
XNOR2X1_23 vdd i_add1[14] gnd _390_ i_add2[14] NOR2X1
XAND2X2_19 vdd gnd i_add2[14] i_add1[14] _391_ AND2X2
XOAI21X1_15 gnd vdd _390_ _391_ _392_ w_C[14] OAI21X1
XNAND2X1_22 vdd _319_[14] gnd _392_ _396_ NAND2X1
XINVX1_43 w_C[15] _400_ vdd gnd INVX1
XOR2X2_12 _401_ i_add1[15] vdd gnd i_add2[15] OR2X2
XNAND2X1_23 vdd _402_ gnd i_add2[15] i_add1[15] NAND2X1
XNAND3X1_20 _402_ vdd gnd _400_ _401_ _403_ NAND3X1
XNOR2X1_24 vdd i_add1[15] gnd _397_ i_add2[15] NOR2X1
XAND2X2_20 vdd gnd i_add2[15] i_add1[15] _398_ AND2X2
XOAI21X1_16 gnd vdd _397_ _398_ _399_ w_C[15] OAI21X1
XNAND2X1_24 vdd _319_[15] gnd _399_ _403_ NAND2X1
XINVX1_44 w_C[16] _407_ vdd gnd INVX1
XOR2X2_13 _408_ i_add1[16] vdd gnd i_add2[16] OR2X2
XNAND2X1_25 vdd _409_ gnd i_add2[16] i_add1[16] NAND2X1
XNAND3X1_21 _409_ vdd gnd _407_ _408_ _410_ NAND3X1
XNOR2X1_25 vdd i_add1[16] gnd _404_ i_add2[16] NOR2X1
XAND2X2_21 vdd gnd i_add2[16] i_add1[16] _405_ AND2X2
XOAI21X1_17 gnd vdd _404_ _405_ _406_ w_C[16] OAI21X1
XNAND2X1_26 vdd _319_[16] gnd _406_ _410_ NAND2X1
XINVX1_45 w_C[17] _414_ vdd gnd INVX1
XOR2X2_14 _415_ i_add1[17] vdd gnd i_add2[17] OR2X2
XNAND2X1_27 vdd _416_ gnd i_add2[17] i_add1[17] NAND2X1
XNAND3X1_22 _416_ vdd gnd _414_ _415_ _417_ NAND3X1
XNOR2X1_26 vdd i_add1[17] gnd _411_ i_add2[17] NOR2X1
XAND2X2_22 vdd gnd i_add2[17] i_add1[17] _412_ AND2X2
XOAI21X1_18 gnd vdd _411_ _412_ _413_ w_C[17] OAI21X1
XNAND2X1_28 vdd _319_[17] gnd _413_ _417_ NAND2X1
XINVX1_46 w_C[18] _421_ vdd gnd INVX1
XOR2X2_15 _422_ i_add1[18] vdd gnd i_add2[18] OR2X2
XNAND2X1_29 vdd _423_ gnd i_add2[18] i_add1[18] NAND2X1
XNAND3X1_23 _423_ vdd gnd _421_ _422_ _424_ NAND3X1
XNOR2X1_27 vdd i_add1[18] gnd _418_ i_add2[18] NOR2X1
XAND2X2_23 vdd gnd i_add2[18] i_add1[18] _419_ AND2X2
XOAI21X1_19 gnd vdd _418_ _419_ _420_ w_C[18] OAI21X1
XNAND2X1_30 vdd _319_[18] gnd _420_ _424_ NAND2X1
XINVX1_47 w_C[19] _428_ vdd gnd INVX1
XOR2X2_16 _429_ i_add1[19] vdd gnd i_add2[19] OR2X2
XNAND2X1_31 vdd _430_ gnd i_add2[19] i_add1[19] NAND2X1
XNAND3X1_24 _430_ vdd gnd _428_ _429_ _431_ NAND3X1
XNOR2X1_28 vdd i_add1[19] gnd _425_ i_add2[19] NOR2X1
XAND2X2_24 vdd gnd i_add2[19] i_add1[19] _426_ AND2X2
XOAI21X1_20 gnd vdd _425_ _426_ _427_ w_C[19] OAI21X1
XNAND2X1_32 vdd _319_[19] gnd _427_ _431_ NAND2X1
XINVX1_48 w_C[20] _435_ vdd gnd INVX1
XOR2X2_17 _436_ i_add1[20] vdd gnd i_add2[20] OR2X2
XNAND2X1_33 vdd _437_ gnd i_add2[20] i_add1[20] NAND2X1
XNAND3X1_25 _437_ vdd gnd _435_ _436_ _438_ NAND3X1
XNOR2X1_29 vdd i_add1[20] gnd _432_ i_add2[20] NOR2X1
XAND2X2_25 vdd gnd i_add2[20] i_add1[20] _433_ AND2X2
XOAI21X1_21 gnd vdd _432_ _433_ _434_ w_C[20] OAI21X1
XNAND2X1_34 vdd _319_[20] gnd _434_ _438_ NAND2X1
XINVX1_49 w_C[21] _442_ vdd gnd INVX1
XOR2X2_18 _443_ i_add1[21] vdd gnd i_add2[21] OR2X2
XNAND2X1_35 vdd _444_ gnd i_add2[21] i_add1[21] NAND2X1
XNAND3X1_26 _444_ vdd gnd _442_ _443_ _445_ NAND3X1
XNOR2X1_30 vdd i_add1[21] gnd _439_ i_add2[21] NOR2X1
XAND2X2_26 vdd gnd i_add2[21] i_add1[21] _440_ AND2X2
XOAI21X1_22 gnd vdd _439_ _440_ _441_ w_C[21] OAI21X1
XNAND2X1_36 vdd _319_[21] gnd _441_ _445_ NAND2X1
XINVX1_50 w_C[22] _449_ vdd gnd INVX1
XOR2X2_19 _450_ i_add1[22] vdd gnd i_add2[22] OR2X2
XNAND2X1_37 vdd _451_ gnd i_add2[22] i_add1[22] NAND2X1
XNAND3X1_27 _451_ vdd gnd _449_ _450_ _452_ NAND3X1
XNOR2X1_31 vdd i_add1[22] gnd _446_ i_add2[22] NOR2X1
XAND2X2_27 vdd gnd i_add2[22] i_add1[22] _447_ AND2X2
XOAI21X1_23 gnd vdd _446_ _447_ _448_ w_C[22] OAI21X1
XNAND2X1_38 vdd _319_[22] gnd _448_ _452_ NAND2X1
XINVX1_51 w_C[23] _456_ vdd gnd INVX1
XOR2X2_20 _457_ i_add1[23] vdd gnd i_add2[23] OR2X2
XNAND2X1_39 vdd _458_ gnd i_add2[23] i_add1[23] NAND2X1
XNAND3X1_28 _458_ vdd gnd _456_ _457_ _459_ NAND3X1
XNOR2X1_32 vdd i_add1[23] gnd _453_ i_add2[23] NOR2X1
XAND2X2_28 vdd gnd i_add2[23] i_add1[23] _454_ AND2X2
XOAI21X1_24 gnd vdd _453_ _454_ _455_ w_C[23] OAI21X1
XNAND2X1_40 vdd _319_[23] gnd _455_ _459_ NAND2X1
XINVX1_52 w_C[24] _463_ vdd gnd INVX1
XOR2X2_21 _464_ i_add1[24] vdd gnd i_add2[24] OR2X2
XNAND2X1_41 vdd _465_ gnd i_add2[24] i_add1[24] NAND2X1
XNAND3X1_29 _465_ vdd gnd _463_ _464_ _466_ NAND3X1
XNOR2X1_33 vdd i_add1[24] gnd _460_ i_add2[24] NOR2X1
XAND2X2_29 vdd gnd i_add2[24] i_add1[24] _461_ AND2X2
XOAI21X1_25 gnd vdd _460_ _461_ _462_ w_C[24] OAI21X1
XNAND2X1_42 vdd _319_[24] gnd _462_ _466_ NAND2X1
XINVX1_53 w_C[25] _470_ vdd gnd INVX1
XOR2X2_22 _471_ i_add1[25] vdd gnd i_add2[25] OR2X2
XNAND2X1_43 vdd _472_ gnd i_add2[25] i_add1[25] NAND2X1
XNAND3X1_30 _472_ vdd gnd _470_ _471_ _473_ NAND3X1
XNOR2X1_34 vdd i_add1[25] gnd _467_ i_add2[25] NOR2X1
XAND2X2_30 vdd gnd i_add2[25] i_add1[25] _468_ AND2X2
XOAI21X1_26 gnd vdd _467_ _468_ _469_ w_C[25] OAI21X1
XNAND2X1_44 vdd _319_[25] gnd _469_ _473_ NAND2X1
XINVX1_54 w_C[26] _477_ vdd gnd INVX1
XOR2X2_23 _478_ i_add1[26] vdd gnd i_add2[26] OR2X2
XNAND2X1_45 vdd _479_ gnd i_add2[26] i_add1[26] NAND2X1
XNAND3X1_31 _479_ vdd gnd _477_ _478_ _480_ NAND3X1
XNOR2X1_35 vdd i_add1[26] gnd _474_ i_add2[26] NOR2X1
XAND2X2_31 vdd gnd i_add2[26] i_add1[26] _475_ AND2X2
XOAI21X1_27 gnd vdd _474_ _475_ _476_ w_C[26] OAI21X1
XNAND2X1_46 vdd _319_[26] gnd _476_ _480_ NAND2X1
XINVX1_55 w_C[27] _484_ vdd gnd INVX1
XOR2X2_24 _485_ i_add1[27] vdd gnd i_add2[27] OR2X2
XNAND2X1_47 vdd _486_ gnd i_add2[27] i_add1[27] NAND2X1
XNAND3X1_32 _486_ vdd gnd _484_ _485_ _487_ NAND3X1
XNOR2X1_36 vdd i_add1[27] gnd _481_ i_add2[27] NOR2X1
XAND2X2_32 vdd gnd i_add2[27] i_add1[27] _482_ AND2X2
XOAI21X1_28 gnd vdd _481_ _482_ _483_ w_C[27] OAI21X1
XNAND2X1_48 vdd _319_[27] gnd _483_ _487_ NAND2X1
XINVX1_56 w_C[28] _491_ vdd gnd INVX1
XOR2X2_25 _492_ i_add1[28] vdd gnd i_add2[28] OR2X2
XNAND2X1_49 vdd _493_ gnd i_add2[28] i_add1[28] NAND2X1
XNAND3X1_33 _493_ vdd gnd _491_ _492_ _494_ NAND3X1
XNOR2X1_37 vdd i_add1[28] gnd _488_ i_add2[28] NOR2X1
XAND2X2_33 vdd gnd i_add2[28] i_add1[28] _489_ AND2X2
XOAI21X1_29 gnd vdd _488_ _489_ _490_ w_C[28] OAI21X1
XNAND2X1_50 vdd _319_[28] gnd _490_ _494_ NAND2X1
XINVX1_57 w_C[29] _498_ vdd gnd INVX1
XOR2X2_26 _499_ i_add1[29] vdd gnd i_add2[29] OR2X2
XNAND2X1_51 vdd _500_ gnd i_add2[29] i_add1[29] NAND2X1
XNAND3X1_34 _500_ vdd gnd _498_ _499_ _501_ NAND3X1
XNOR2X1_38 vdd i_add1[29] gnd _495_ i_add2[29] NOR2X1
XAND2X2_34 vdd gnd i_add2[29] i_add1[29] _496_ AND2X2
XOAI21X1_30 gnd vdd _495_ _496_ _497_ w_C[29] OAI21X1
XNAND2X1_52 vdd _319_[29] gnd _497_ _501_ NAND2X1
XINVX1_58 w_C[30] _505_ vdd gnd INVX1
XOR2X2_27 _506_ i_add1[30] vdd gnd i_add2[30] OR2X2
XNAND2X1_53 vdd _507_ gnd i_add2[30] i_add1[30] NAND2X1
XNAND3X1_35 _507_ vdd gnd _505_ _506_ _508_ NAND3X1
XNOR2X1_39 vdd i_add1[30] gnd _502_ i_add2[30] NOR2X1
XAND2X2_35 vdd gnd i_add2[30] i_add1[30] _503_ AND2X2
XOAI21X1_31 gnd vdd _502_ _503_ _504_ w_C[30] OAI21X1
XNAND2X1_54 vdd _319_[30] gnd _504_ _508_ NAND2X1
XINVX1_59 w_C[31] _512_ vdd gnd INVX1
XOR2X2_28 _513_ i_add1[31] vdd gnd i_add2[31] OR2X2
XNAND2X1_55 vdd _514_ gnd i_add2[31] i_add1[31] NAND2X1
XNAND3X1_36 _514_ vdd gnd _512_ _513_ _515_ NAND3X1
XNOR2X1_40 vdd i_add1[31] gnd _509_ i_add2[31] NOR2X1
XAND2X2_36 vdd gnd i_add2[31] i_add1[31] _510_ AND2X2
XOAI21X1_32 gnd vdd _509_ _510_ _511_ w_C[31] OAI21X1
XNAND2X1_56 vdd _319_[31] gnd _511_ _515_ NAND2X1
XINVX1_60 w_C[32] _519_ vdd gnd INVX1
XOR2X2_29 _520_ i_add1[32] vdd gnd i_add2[32] OR2X2
XNAND2X1_57 vdd _521_ gnd i_add2[32] i_add1[32] NAND2X1
XNAND3X1_37 _521_ vdd gnd _519_ _520_ _522_ NAND3X1
XNOR2X1_41 vdd i_add1[32] gnd _516_ i_add2[32] NOR2X1
XAND2X2_37 vdd gnd i_add2[32] i_add1[32] _517_ AND2X2
XOAI21X1_33 gnd vdd _516_ _517_ _518_ w_C[32] OAI21X1
XNAND2X1_58 vdd _319_[32] gnd _518_ _522_ NAND2X1
XINVX1_61 w_C[33] _526_ vdd gnd INVX1
XOR2X2_30 _527_ i_add1[33] vdd gnd i_add2[33] OR2X2
XNAND2X1_59 vdd _528_ gnd i_add2[33] i_add1[33] NAND2X1
XNAND3X1_38 _528_ vdd gnd _526_ _527_ _529_ NAND3X1
XNOR2X1_42 vdd i_add1[33] gnd _523_ i_add2[33] NOR2X1
XAND2X2_38 vdd gnd i_add2[33] i_add1[33] _524_ AND2X2
XOAI21X1_34 gnd vdd _523_ _524_ _525_ w_C[33] OAI21X1
XNAND2X1_60 vdd _319_[33] gnd _525_ _529_ NAND2X1
XINVX1_62 w_C[34] _533_ vdd gnd INVX1
XOR2X2_31 _534_ i_add1[34] vdd gnd i_add2[34] OR2X2
XNAND2X1_61 vdd _535_ gnd i_add2[34] i_add1[34] NAND2X1
XNAND3X1_39 _535_ vdd gnd _533_ _534_ _536_ NAND3X1
XNOR2X1_43 vdd i_add1[34] gnd _530_ i_add2[34] NOR2X1
XAND2X2_39 vdd gnd i_add2[34] i_add1[34] _531_ AND2X2
XOAI21X1_35 gnd vdd _530_ _531_ _532_ w_C[34] OAI21X1
XNAND2X1_62 vdd _319_[34] gnd _532_ _536_ NAND2X1
XINVX1_63 w_C[35] _540_ vdd gnd INVX1
XOR2X2_32 _541_ i_add1[35] vdd gnd i_add2[35] OR2X2
XNAND2X1_63 vdd _542_ gnd i_add2[35] i_add1[35] NAND2X1
XNAND3X1_40 _542_ vdd gnd _540_ _541_ _543_ NAND3X1
XNOR2X1_44 vdd i_add1[35] gnd _537_ i_add2[35] NOR2X1
XAND2X2_40 vdd gnd i_add2[35] i_add1[35] _538_ AND2X2
XOAI21X1_36 gnd vdd _537_ _538_ _539_ w_C[35] OAI21X1
XNAND2X1_64 vdd _319_[35] gnd _539_ _543_ NAND2X1
XINVX1_64 w_C[36] _547_ vdd gnd INVX1
XOR2X2_33 _548_ i_add1[36] vdd gnd i_add2[36] OR2X2
XNAND2X1_65 vdd _549_ gnd i_add2[36] i_add1[36] NAND2X1
XNAND3X1_41 _549_ vdd gnd _547_ _548_ _550_ NAND3X1
XNOR2X1_45 vdd i_add1[36] gnd _544_ i_add2[36] NOR2X1
XAND2X2_41 vdd gnd i_add2[36] i_add1[36] _545_ AND2X2
XOAI21X1_37 gnd vdd _544_ _545_ _546_ w_C[36] OAI21X1
XNAND2X1_66 vdd _319_[36] gnd _546_ _550_ NAND2X1
XINVX1_65 w_C[37] _554_ vdd gnd INVX1
XOR2X2_34 _555_ i_add1[37] vdd gnd i_add2[37] OR2X2
XNAND2X1_67 vdd _556_ gnd i_add2[37] i_add1[37] NAND2X1
XNAND3X1_42 _556_ vdd gnd _554_ _555_ _557_ NAND3X1
XNOR2X1_46 vdd i_add1[37] gnd _551_ i_add2[37] NOR2X1
XAND2X2_42 vdd gnd i_add2[37] i_add1[37] _552_ AND2X2
XOAI21X1_38 gnd vdd _551_ _552_ _553_ w_C[37] OAI21X1
XNAND2X1_68 vdd _319_[37] gnd _553_ _557_ NAND2X1
XINVX1_66 w_C[38] _561_ vdd gnd INVX1
XOR2X2_35 _562_ i_add1[38] vdd gnd i_add2[38] OR2X2
XNAND2X1_69 vdd _563_ gnd i_add2[38] i_add1[38] NAND2X1
XNAND3X1_43 _563_ vdd gnd _561_ _562_ _564_ NAND3X1
XNOR2X1_47 vdd i_add1[38] gnd _558_ i_add2[38] NOR2X1
XAND2X2_43 vdd gnd i_add2[38] i_add1[38] _559_ AND2X2
XOAI21X1_39 gnd vdd _558_ _559_ _560_ w_C[38] OAI21X1
XNAND2X1_70 vdd _319_[38] gnd _560_ _564_ NAND2X1
XINVX1_67 w_C[39] _568_ vdd gnd INVX1
XOR2X2_36 _569_ i_add1[39] vdd gnd i_add2[39] OR2X2
XNAND2X1_71 vdd _570_ gnd i_add2[39] i_add1[39] NAND2X1
XNAND3X1_44 _570_ vdd gnd _568_ _569_ _571_ NAND3X1
XNOR2X1_48 vdd i_add1[39] gnd _565_ i_add2[39] NOR2X1
XAND2X2_44 vdd gnd i_add2[39] i_add1[39] _566_ AND2X2
XOAI21X1_40 gnd vdd _565_ _566_ _567_ w_C[39] OAI21X1
XNAND2X1_72 vdd _319_[39] gnd _567_ _571_ NAND2X1
XINVX1_68 w_C[40] _575_ vdd gnd INVX1
XOR2X2_37 _576_ i_add1[40] vdd gnd i_add2[40] OR2X2
XNAND2X1_73 vdd _577_ gnd i_add2[40] i_add1[40] NAND2X1
XNAND3X1_45 _577_ vdd gnd _575_ _576_ _578_ NAND3X1
XNOR2X1_49 vdd i_add1[40] gnd _572_ i_add2[40] NOR2X1
XAND2X2_45 vdd gnd i_add2[40] i_add1[40] _573_ AND2X2
XOAI21X1_41 gnd vdd _572_ _573_ _574_ w_C[40] OAI21X1
XNAND2X1_74 vdd _319_[40] gnd _574_ _578_ NAND2X1
XINVX1_69 w_C[41] _582_ vdd gnd INVX1
XOR2X2_38 _583_ i_add1[41] vdd gnd i_add2[41] OR2X2
XNAND2X1_75 vdd _584_ gnd i_add2[41] i_add1[41] NAND2X1
XNAND3X1_46 _584_ vdd gnd _582_ _583_ _585_ NAND3X1
XNOR2X1_50 vdd i_add1[41] gnd _579_ i_add2[41] NOR2X1
XAND2X2_46 vdd gnd i_add2[41] i_add1[41] _580_ AND2X2
XOAI21X1_42 gnd vdd _579_ _580_ _581_ w_C[41] OAI21X1
XNAND2X1_76 vdd _319_[41] gnd _581_ _585_ NAND2X1
XINVX1_70 w_C[42] _589_ vdd gnd INVX1
XOR2X2_39 _590_ i_add1[42] vdd gnd i_add2[42] OR2X2
XNAND2X1_77 vdd _591_ gnd i_add2[42] i_add1[42] NAND2X1
XNAND3X1_47 _591_ vdd gnd _589_ _590_ _592_ NAND3X1
XNOR2X1_51 vdd i_add1[42] gnd _586_ i_add2[42] NOR2X1
XAND2X2_47 vdd gnd i_add2[42] i_add1[42] _587_ AND2X2
XOAI21X1_43 gnd vdd _586_ _587_ _588_ w_C[42] OAI21X1
XNAND2X1_78 vdd _319_[42] gnd _588_ _592_ NAND2X1
XINVX1_71 w_C[43] _596_ vdd gnd INVX1
XOR2X2_40 _597_ i_add1[43] vdd gnd i_add2[43] OR2X2
XNAND2X1_79 vdd _598_ gnd i_add2[43] i_add1[43] NAND2X1
XNAND3X1_48 _598_ vdd gnd _596_ _597_ _599_ NAND3X1
XNOR2X1_52 vdd i_add1[43] gnd _593_ i_add2[43] NOR2X1
XAND2X2_48 vdd gnd i_add2[43] i_add1[43] _594_ AND2X2
XOAI21X1_44 gnd vdd _593_ _594_ _595_ w_C[43] OAI21X1
XNAND2X1_80 vdd _319_[43] gnd _595_ _599_ NAND2X1
XINVX1_72 w_C[44] _603_ vdd gnd INVX1
XOR2X2_41 _604_ i_add1[44] vdd gnd i_add2[44] OR2X2
XNAND2X1_81 vdd _605_ gnd i_add2[44] i_add1[44] NAND2X1
XNAND3X1_49 _605_ vdd gnd _603_ _604_ _606_ NAND3X1
XNOR2X1_53 vdd i_add1[44] gnd _600_ i_add2[44] NOR2X1
XAND2X2_49 vdd gnd i_add2[44] i_add1[44] _601_ AND2X2
XOAI21X1_45 gnd vdd _600_ _601_ _602_ w_C[44] OAI21X1
XNAND2X1_82 vdd _319_[44] gnd _602_ _606_ NAND2X1
XINVX1_73 w_C[45] _610_ vdd gnd INVX1
XOR2X2_42 _611_ i_add1[45] vdd gnd i_add2[45] OR2X2
XNAND2X1_83 vdd _612_ gnd i_add2[45] i_add1[45] NAND2X1
XNAND3X1_50 _612_ vdd gnd _610_ _611_ _613_ NAND3X1
XNOR2X1_54 vdd i_add1[45] gnd _607_ i_add2[45] NOR2X1
XAND2X2_50 vdd gnd i_add2[45] i_add1[45] _608_ AND2X2
XOAI21X1_46 gnd vdd _607_ _608_ _609_ w_C[45] OAI21X1
XNAND2X1_84 vdd _319_[45] gnd _609_ _613_ NAND2X1
XINVX1_74 w_C[46] _617_ vdd gnd INVX1
XOR2X2_43 _618_ i_add1[46] vdd gnd i_add2[46] OR2X2
XNAND2X1_85 vdd _619_ gnd i_add2[46] i_add1[46] NAND2X1
XNAND3X1_51 _619_ vdd gnd _617_ _618_ _620_ NAND3X1
XNOR2X1_55 vdd i_add1[46] gnd _614_ i_add2[46] NOR2X1
XAND2X2_51 vdd gnd i_add2[46] i_add1[46] _615_ AND2X2
XOAI21X1_47 gnd vdd _614_ _615_ _616_ w_C[46] OAI21X1
XNAND2X1_86 vdd _319_[46] gnd _616_ _620_ NAND2X1
XINVX1_75 w_C[47] _624_ vdd gnd INVX1
XOR2X2_44 _625_ i_add1[47] vdd gnd i_add2[47] OR2X2
XNAND2X1_87 vdd _626_ gnd i_add2[47] i_add1[47] NAND2X1
XNAND3X1_52 _626_ vdd gnd _624_ _625_ _627_ NAND3X1
XNOR2X1_56 vdd i_add1[47] gnd _621_ i_add2[47] NOR2X1
XAND2X2_52 vdd gnd i_add2[47] i_add1[47] _622_ AND2X2
XOAI21X1_48 gnd vdd _621_ _622_ _623_ w_C[47] OAI21X1
XNAND2X1_88 vdd _319_[47] gnd _623_ _627_ NAND2X1
XINVX1_76 w_C[48] _631_ vdd gnd INVX1
XOR2X2_45 _632_ i_add1[48] vdd gnd i_add2[48] OR2X2
XNAND2X1_89 vdd _633_ gnd i_add2[48] i_add1[48] NAND2X1
XNAND3X1_53 _633_ vdd gnd _631_ _632_ _634_ NAND3X1
XNOR2X1_57 vdd i_add1[48] gnd _628_ i_add2[48] NOR2X1
XAND2X2_53 vdd gnd i_add2[48] i_add1[48] _629_ AND2X2
XOAI21X1_49 gnd vdd _628_ _629_ _630_ w_C[48] OAI21X1
XNAND2X1_90 vdd _319_[48] gnd _630_ _634_ NAND2X1
XINVX1_77 w_C[49] _638_ vdd gnd INVX1
XOR2X2_46 _639_ i_add1[49] vdd gnd i_add2[49] OR2X2
XNAND2X1_91 vdd _640_ gnd i_add2[49] i_add1[49] NAND2X1
XNAND3X1_54 _640_ vdd gnd _638_ _639_ _641_ NAND3X1
XNOR2X1_58 vdd i_add1[49] gnd _635_ i_add2[49] NOR2X1
XAND2X2_54 vdd gnd i_add2[49] i_add1[49] _636_ AND2X2
XOAI21X1_50 gnd vdd _635_ _636_ _637_ w_C[49] OAI21X1
XNAND2X1_92 vdd _319_[49] gnd _637_ _641_ NAND2X1
XINVX1_78 w_C[50] _645_ vdd gnd INVX1
XOR2X2_47 _646_ i_add1[50] vdd gnd i_add2[50] OR2X2
XNAND2X1_93 vdd _647_ gnd i_add2[50] i_add1[50] NAND2X1
XNAND3X1_55 _647_ vdd gnd _645_ _646_ _648_ NAND3X1
XNOR2X1_59 vdd i_add1[50] gnd _642_ i_add2[50] NOR2X1
XAND2X2_55 vdd gnd i_add2[50] i_add1[50] _643_ AND2X2
XOAI21X1_51 gnd vdd _642_ _643_ _644_ w_C[50] OAI21X1
XNAND2X1_94 vdd _319_[50] gnd _644_ _648_ NAND2X1
XINVX1_79 w_C[51] _652_ vdd gnd INVX1
XOR2X2_48 _653_ i_add1[51] vdd gnd i_add2[51] OR2X2
XNAND2X1_95 vdd _654_ gnd i_add2[51] i_add1[51] NAND2X1
XNAND3X1_56 _654_ vdd gnd _652_ _653_ _655_ NAND3X1
XNOR2X1_60 vdd i_add1[51] gnd _649_ i_add2[51] NOR2X1
XAND2X2_56 vdd gnd i_add2[51] i_add1[51] _650_ AND2X2
XOAI21X1_52 gnd vdd _649_ _650_ _651_ w_C[51] OAI21X1
XNAND2X1_96 vdd _319_[51] gnd _651_ _655_ NAND2X1
XINVX1_80 w_C[52] _659_ vdd gnd INVX1
XOR2X2_49 _660_ i_add1[52] vdd gnd i_add2[52] OR2X2
XNAND2X1_97 vdd _661_ gnd i_add2[52] i_add1[52] NAND2X1
XNAND3X1_57 _661_ vdd gnd _659_ _660_ _662_ NAND3X1
XNOR2X1_61 vdd i_add1[52] gnd _656_ i_add2[52] NOR2X1
XAND2X2_57 vdd gnd i_add2[52] i_add1[52] _657_ AND2X2
XOAI21X1_53 gnd vdd _656_ _657_ _658_ w_C[52] OAI21X1
XNAND2X1_98 vdd _319_[52] gnd _658_ _662_ NAND2X1
XINVX1_81 gnd _666_ vdd gnd INVX1
XOR2X2_50 _667_ i_add1[0] vdd gnd i_add2[0] OR2X2
XNAND2X1_99 vdd _668_ gnd i_add2[0] i_add1[0] NAND2X1
XNAND3X1_58 _668_ vdd gnd _666_ _667_ _669_ NAND3X1
XNOR2X1_62 vdd i_add1[0] gnd _663_ i_add2[0] NOR2X1
XAND2X2_58 vdd gnd i_add2[0] i_add1[0] _664_ AND2X2
XOAI21X1_54 gnd vdd _663_ _664_ _665_ gnd OAI21X1
XNAND2X1_100 vdd _319_[0] gnd _665_ _669_ NAND2X1
XINVX1_82 w_C[1] _673_ vdd gnd INVX1
XOR2X2_51 _674_ i_add1[1] vdd gnd i_add2[1] OR2X2
XNAND2X1_101 vdd _675_ gnd i_add2[1] i_add1[1] NAND2X1
XNAND3X1_59 _675_ vdd gnd _673_ _674_ _676_ NAND3X1
XNOR2X1_63 vdd i_add1[1] gnd _670_ i_add2[1] NOR2X1
XAND2X2_59 vdd gnd i_add2[1] i_add1[1] _671_ AND2X2
XOAI21X1_55 gnd vdd _670_ _671_ _672_ w_C[1] OAI21X1
XNAND2X1_102 vdd _319_[1] gnd _672_ _676_ NAND2X1
XINVX1_83 w_C[2] _680_ vdd gnd INVX1
XOR2X2_52 _681_ i_add1[2] vdd gnd i_add2[2] OR2X2
XNAND2X1_103 vdd _682_ gnd i_add2[2] i_add1[2] NAND2X1
XNAND3X1_60 _682_ vdd gnd _680_ _681_ _683_ NAND3X1
XNOR2X1_64 vdd i_add1[2] gnd _677_ i_add2[2] NOR2X1
XAND2X2_60 vdd gnd i_add2[2] i_add1[2] _678_ AND2X2
XOAI21X1_56 gnd vdd _677_ _678_ _679_ w_C[2] OAI21X1
XNAND2X1_104 vdd _319_[2] gnd _679_ _683_ NAND2X1
XINVX1_84 w_C[3] _687_ vdd gnd INVX1
XOR2X2_53 _688_ i_add1[3] vdd gnd i_add2[3] OR2X2
XNAND2X1_105 vdd _689_ gnd i_add2[3] i_add1[3] NAND2X1
XNAND3X1_61 _689_ vdd gnd _687_ _688_ _690_ NAND3X1
XNOR2X1_65 vdd i_add1[3] gnd _684_ i_add2[3] NOR2X1
XAND2X2_61 vdd gnd i_add2[3] i_add1[3] _685_ AND2X2
XOAI21X1_57 gnd vdd _684_ _685_ _686_ w_C[3] OAI21X1
XNAND2X1_106 vdd _319_[3] gnd _686_ _690_ NAND2X1
XINVX1_85 i_add2[26] _154_ vdd gnd INVX1
XINVX1_86 i_add1[26] _155_ vdd gnd INVX1
XNOR2X1_66 vdd _155_ gnd _156_ _154_ NOR2X1
XINVX1_87 _156_ _157_ vdd gnd INVX1
XNOR2X1_67 vdd i_add1[25] gnd _158_ i_add2[25] NOR2X1
XINVX1_88 _158_ _159_ vdd gnd INVX1
XNOR2X1_68 vdd i_add1[26] gnd _160_ i_add2[26] NOR2X1
XINVX1_89 _160_ _161_ vdd gnd INVX1
XNAND3X1_62 _161_ vdd gnd _159_ _152_ _162_ NAND3X1
XAND2X2_62 vdd gnd _162_ _157_ _163_ AND2X2
XINVX1_90 _163_ w_C[27] vdd gnd INVX1
XAND2X2_63 vdd gnd i_add2[27] i_add1[27] _164_ AND2X2
XINVX1_91 _164_ _165_ vdd gnd INVX1
XNAND3X1_63 _165_ vdd gnd _157_ _162_ _166_ NAND3X1
XOAI21X1_58 gnd vdd i_add2[27] i_add1[27] _167_ _166_ OAI21X1
XINVX1_92 _167_ w_C[28] vdd gnd INVX1
XINVX1_93 i_add2[28] _168_ vdd gnd INVX1
XINVX1_94 i_add1[28] _169_ vdd gnd INVX1
XNOR2X1_69 vdd _169_ gnd _170_ _168_ NOR2X1
XINVX1_95 _170_ _171_ vdd gnd INVX1
XNOR2X1_70 vdd i_add1[27] gnd _172_ i_add2[27] NOR2X1
XINVX1_96 _172_ _173_ vdd gnd INVX1
XNOR2X1_71 vdd i_add1[28] gnd _174_ i_add2[28] NOR2X1
XINVX1_97 _174_ _175_ vdd gnd INVX1
XNAND3X1_64 _175_ vdd gnd _173_ _166_ _176_ NAND3X1