* XSpice netlist created from SPICE and liberty sources by spi2xspice.py
*SPICE netlist created from BLIF module cla_58bit by blif2BSpice
.subckt cla_58bit a_vdd a_gnd a_i_add1_0_ a_i_add1_1_ a_i_add1_2_ a_i_add1_3_ a_i_add1_4_ a_i_add1_5_ a_i_add1_6_ a_i_add1_7_ a_i_add1_8_ a_i_add1_9_ a_i_add1_10_ a_i_add1_11_ a_i_add1_12_ a_i_add1_13_ a_i_add1_14_ a_i_add1_15_ a_i_add1_16_ a_i_add1_17_ a_i_add1_18_ a_i_add1_19_ a_i_add1_20_ a_i_add1_21_ a_i_add1_22_ a_i_add1_23_ a_i_add1_24_ a_i_add1_25_ a_i_add1_26_ a_i_add1_27_ a_i_add1_28_ a_i_add1_29_ a_i_add1_30_ a_i_add1_31_ a_i_add1_32_ a_i_add1_33_ a_i_add1_34_ a_i_add1_35_ a_i_add1_36_ a_i_add1_37_ a_i_add1_38_ a_i_add1_39_ a_i_add1_40_ a_i_add1_41_ a_i_add1_42_ a_i_add1_43_ a_i_add1_44_ a_i_add1_45_ a_i_add1_46_ a_i_add1_47_ a_i_add1_48_ a_i_add1_49_ a_i_add1_50_ a_i_add1_51_ a_i_add1_52_ a_i_add1_53_ a_i_add1_54_ a_i_add1_55_ a_i_add1_56_ a_i_add1_57_ a_i_add2_0_ a_i_add2_1_ a_i_add2_2_ a_i_add2_3_ a_i_add2_4_ a_i_add2_5_ a_i_add2_6_ a_i_add2_7_ a_i_add2_8_ a_i_add2_9_ a_i_add2_10_ a_i_add2_11_ a_i_add2_12_ a_i_add2_13_ a_i_add2_14_ a_i_add2_15_ a_i_add2_16_ a_i_add2_17_ a_i_add2_18_ a_i_add2_19_ a_i_add2_20_ a_i_add2_21_ a_i_add2_22_ a_i_add2_23_ a_i_add2_24_ a_i_add2_25_ a_i_add2_26_ a_i_add2_27_ a_i_add2_28_ a_i_add2_29_ a_i_add2_30_ a_i_add2_31_ a_i_add2_32_ a_i_add2_33_ a_i_add2_34_ a_i_add2_35_ a_i_add2_36_ a_i_add2_37_ a_i_add2_38_ a_i_add2_39_ a_i_add2_40_ a_i_add2_41_ a_i_add2_42_ a_i_add2_43_ a_i_add2_44_ a_i_add2_45_ a_i_add2_46_ a_i_add2_47_ a_i_add2_48_ a_i_add2_49_ a_i_add2_50_ a_i_add2_51_ a_i_add2_52_ a_i_add2_53_ a_i_add2_54_ a_i_add2_55_ a_i_add2_56_ a_i_add2_57_ a_o_result_0_ a_o_result_1_ a_o_result_2_ a_o_result_3_ a_o_result_4_ a_o_result_5_ a_o_result_6_ a_o_result_7_ a_o_result_8_ a_o_result_9_ a_o_result_10_ a_o_result_11_ a_o_result_12_ a_o_result_13_ a_o_result_14_ a_o_result_15_ a_o_result_16_ a_o_result_17_ a_o_result_18_ a_o_result_19_ a_o_result_20_ a_o_result_21_ a_o_result_22_ a_o_result_23_ a_o_result_24_ a_o_result_25_ a_o_result_26_ a_o_result_27_ a_o_result_28_ a_o_result_29_ a_o_result_30_ a_o_result_31_ a_o_result_32_ a_o_result_33_ a_o_result_34_ a_o_result_35_ a_o_result_36_ a_o_result_37_ a_o_result_38_ a_o_result_39_ a_o_result_40_ a_o_result_41_ a_o_result_42_ a_o_result_43_ a_o_result_44_ a_o_result_45_ a_o_result_46_ a_o_result_47_ a_o_result_48_ a_o_result_49_ a_o_result_50_ a_o_result_51_ a_o_result_52_ a_o_result_53_ a_o_result_54_ a_o_result_55_ a_o_result_56_ a_o_result_57_ a_o_result_58_
ANAND3X1_1 [_299_ _308_ _307_] _309_ d_lut_NAND3X1
AOAI21X1_1 [_297_ _298_ _309_] w_C_52_ d_lut_OAI21X1
AINVX1_1 [i_add2_52_] _310_ d_lut_INVX1
AINVX1_2 [i_add1_52_] _311_ d_lut_INVX1
AOAI21X1_2 [i_add2_52_ i_add1_52_ w_C_52_] _312_ d_lut_OAI21X1
AOAI21X1_3 [_310_ _311_ _312_] w_C_53_ d_lut_OAI21X1
ANOR2X1_1 [_310_ _311_] _313_ d_lut_NOR2X1
AINVX1_3 [_313_] _314_ d_lut_INVX1
AAND2X2_1 [i_add2_53_ i_add1_53_] _315_ d_lut_AND2X2
AINVX1_4 [_315_] _316_ d_lut_INVX1
ANAND3X1_2 [_314_ _316_ _312_] _317_ d_lut_NAND3X1
AOAI21X1_4 [i_add2_53_ i_add1_53_ _317_] _318_ d_lut_OAI21X1
AINVX1_5 [_318_] w_C_54_ d_lut_INVX1
ANAND2X1_1 [i_add2_54_ i_add1_54_] _319_ d_lut_NAND2X1
ANOR2X1_2 [i_add2_54_ i_add1_54_] _320_ d_lut_NOR2X1
AOAI21X1_5 [_320_ _318_ _319_] w_C_55_ d_lut_OAI21X1
ANAND2X1_2 [i_add2_55_ i_add1_55_] _321_ d_lut_NAND2X1
AINVX1_6 [_320_] _322_ d_lut_INVX1
ANOR2X1_3 [i_add2_52_ i_add1_52_] _323_ d_lut_NOR2X1
AINVX1_7 [_323_] _324_ d_lut_INVX1
ANOR2X1_4 [_297_ _298_] _325_ d_lut_NOR2X1
AINVX1_8 [_325_] _326_ d_lut_INVX1
ANAND3X1_3 [_326_ _314_ _309_] _327_ d_lut_NAND3X1
ANOR2X1_5 [i_add2_53_ i_add1_53_] _328_ d_lut_NOR2X1
AINVX1_9 [_328_] _329_ d_lut_INVX1
ANAND3X1_4 [_324_ _329_ _327_] _330_ d_lut_NAND3X1
ANAND3X1_5 [_316_ _319_ _330_] _331_ d_lut_NAND3X1
AOR2X2_1 [i_add2_55_ i_add1_55_] _332_ d_lut_OR2X2
ANAND3X1_6 [_322_ _332_ _331_] _333_ d_lut_NAND3X1
ANAND2X1_3 [_321_ _333_] w_C_56_ d_lut_NAND2X1
AOR2X2_2 [i_add2_56_ i_add1_56_] _334_ d_lut_OR2X2
ANAND2X1_4 [i_add2_56_ i_add1_56_] _335_ d_lut_NAND2X1
ANAND3X1_7 [_321_ _335_ _333_] _336_ d_lut_NAND3X1
AAND2X2_2 [_336_ _334_] w_C_57_ d_lut_AND2X2
ANAND2X1_5 [i_add2_57_ i_add1_57_] _337_ d_lut_NAND2X1
AOR2X2_3 [i_add2_57_ i_add1_57_] _338_ d_lut_OR2X2
ANAND3X1_8 [_334_ _338_ _336_] _339_ d_lut_NAND3X1
ANAND2X1_6 [_337_ _339_] w_C_58_ d_lut_NAND2X1
ANAND2X1_7 [i_add2_0_ i_add1_0_] _0_ d_lut_NAND2X1
AINVX1_10 [_0_] w_C_1_ d_lut_INVX1
ANOR2X1_6 [i_add2_1_ i_add1_1_] _1_ d_lut_NOR2X1
AAOI22X1_1 [i_add2_0_ i_add1_0_ i_add2_1_ i_add1_1_] _2_ d_lut_AOI22X1
ANOR2X1_7 [_1_ _2_] w_C_2_ d_lut_NOR2X1
AINVX1_11 [i_add2_2_] _3_ d_lut_INVX1
AINVX1_12 [i_add1_2_] _4_ d_lut_INVX1
ANAND2X1_8 [_3_ _4_] _5_ d_lut_NAND2X1
ANAND2X1_9 [i_add2_2_ i_add1_2_] _6_ d_lut_NAND2X1
AOAI21X1_6 [_1_ _2_ _6_] _7_ d_lut_OAI21X1
AAND2X2_3 [_7_ _5_] w_C_3_ d_lut_AND2X2
ANAND2X1_10 [i_add2_3_ i_add1_3_] _8_ d_lut_NAND2X1
AOR2X2_4 [i_add2_3_ i_add1_3_] _9_ d_lut_OR2X2
ANAND3X1_9 [_5_ _9_ _7_] _10_ d_lut_NAND3X1
ANAND2X1_11 [_8_ _10_] w_C_4_ d_lut_NAND2X1
ANOR2X1_8 [i_add2_4_ i_add1_4_] _11_ d_lut_NOR2X1
AINVX1_13 [_11_] _12_ d_lut_INVX1
ANAND2X1_12 [i_add2_4_ i_add1_4_] _13_ d_lut_NAND2X1
ANAND3X1_10 [_8_ _13_ _10_] _14_ d_lut_NAND3X1
AAND2X2_4 [_14_ _12_] w_C_5_ d_lut_AND2X2
AAND2X2_5 [i_add2_5_ i_add1_5_] _15_ d_lut_AND2X2
AINVX1_14 [_15_] _16_ d_lut_INVX1
ANOR2X1_9 [i_add2_5_ i_add1_5_] _17_ d_lut_NOR2X1
AINVX1_15 [_17_] _18_ d_lut_INVX1
ANAND3X1_11 [_12_ _18_ _14_] _19_ d_lut_NAND3X1
AAND2X2_6 [_19_ _16_] _20_ d_lut_AND2X2
AINVX1_16 [_20_] w_C_6_ d_lut_INVX1
AAND2X2_7 [i_add2_6_ i_add1_6_] _21_ d_lut_AND2X2
AINVX1_17 [_21_] _22_ d_lut_INVX1
ANOR2X1_10 [i_add2_6_ i_add1_6_] _23_ d_lut_NOR2X1
AOAI21X1_7 [_23_ _20_ _22_] w_C_7_ d_lut_OAI21X1
AAND2X2_8 [i_add2_7_ i_add1_7_] _24_ d_lut_AND2X2
AINVX1_18 [_24_] _25_ d_lut_INVX1
AINVX1_19 [_23_] _26_ d_lut_INVX1
ANAND3X1_12 [_16_ _22_ _19_] _27_ d_lut_NAND3X1
ANOR2X1_11 [i_add2_7_ i_add1_7_] _28_ d_lut_NOR2X1
AINVX1_20 [_28_] _29_ d_lut_INVX1
ANAND3X1_13 [_26_ _29_ _27_] _30_ d_lut_NAND3X1
AAND2X2_9 [_30_ _25_] _31_ d_lut_AND2X2
AINVX1_21 [_31_] w_C_8_ d_lut_INVX1
AAND2X2_10 [i_add2_8_ i_add1_8_] _32_ d_lut_AND2X2
AINVX1_22 [_32_] _33_ d_lut_INVX1
ANAND3X1_14 [_25_ _33_ _30_] _34_ d_lut_NAND3X1
AOAI21X1_8 [i_add2_8_ i_add1_8_ _34_] _35_ d_lut_OAI21X1
AINVX1_23 [_35_] w_C_9_ d_lut_INVX1
AINVX1_24 [i_add2_9_] _36_ d_lut_INVX1
AINVX1_25 [i_add1_9_] _37_ d_lut_INVX1
ANOR2X1_12 [i_add2_8_ i_add1_8_] _38_ d_lut_NOR2X1
AINVX1_26 [_38_] _39_ d_lut_INVX1
ANOR2X1_13 [i_add2_9_ i_add1_9_] _40_ d_lut_NOR2X1
AINVX1_27 [_40_] _41_ d_lut_INVX1
ANAND3X1_15 [_39_ _41_ _34_] _42_ d_lut_NAND3X1
AOAI21X1_9 [_36_ _37_ _42_] w_C_10_ d_lut_OAI21X1
ANOR2X1_14 [_36_ _37_] _43_ d_lut_NOR2X1
AINVX1_28 [_43_] _44_ d_lut_INVX1
AAND2X2_11 [i_add2_10_ i_add1_10_] _45_ d_lut_AND2X2
AINVX1_29 [_45_] _46_ d_lut_INVX1
ANAND3X1_16 [_44_ _46_ _42_] _47_ d_lut_NAND3X1
AOAI21X1_10 [i_add2_10_ i_add1_10_ _47_] _48_ d_lut_OAI21X1
AINVX1_30 [_48_] w_C_11_ d_lut_INVX1
AINVX1_31 [i_add2_11_] _49_ d_lut_INVX1
AINVX1_32 [i_add1_11_] _50_ d_lut_INVX1
ANOR2X1_15 [i_add2_10_ i_add1_10_] _51_ d_lut_NOR2X1
AINVX1_33 [_51_] _52_ d_lut_INVX1
ANOR2X1_16 [i_add2_11_ i_add1_11_] _53_ d_lut_NOR2X1
AINVX1_34 [_53_] _54_ d_lut_INVX1
ANAND3X1_17 [_52_ _54_ _47_] _55_ d_lut_NAND3X1
AOAI21X1_11 [_49_ _50_ _55_] w_C_12_ d_lut_OAI21X1
ANOR2X1_17 [_49_ _50_] _56_ d_lut_NOR2X1
AINVX1_35 [_56_] _57_ d_lut_INVX1
AAND2X2_12 [i_add2_12_ i_add1_12_] _58_ d_lut_AND2X2
AINVX1_36 [_58_] _59_ d_lut_INVX1
ANAND3X1_18 [_57_ _59_ _55_] _60_ d_lut_NAND3X1
AOAI21X1_12 [i_add2_12_ i_add1_12_ _60_] _61_ d_lut_OAI21X1
AINVX1_37 [_61_] w_C_13_ d_lut_INVX1
AINVX1_38 [i_add2_13_] _62_ d_lut_INVX1
AINVX1_39 [i_add1_13_] _63_ d_lut_INVX1
ANOR2X1_18 [i_add2_12_ i_add1_12_] _64_ d_lut_NOR2X1
AINVX1_40 [_64_] _65_ d_lut_INVX1
ANOR2X1_19 [i_add2_13_ i_add1_13_] _66_ d_lut_NOR2X1
AINVX1_41 [_66_] _67_ d_lut_INVX1
ANAND3X1_19 [_65_ _67_ _60_] _68_ d_lut_NAND3X1
AOAI21X1_13 [_62_ _63_ _68_] w_C_14_ d_lut_OAI21X1
ANOR2X1_20 [_62_ _63_] _69_ d_lut_NOR2X1
AINVX1_42 [_69_] _70_ d_lut_INVX1
AAND2X2_13 [i_add2_14_ i_add1_14_] _71_ d_lut_AND2X2
AINVX1_43 [_71_] _72_ d_lut_INVX1
ANAND3X1_20 [_70_ _72_ _68_] _73_ d_lut_NAND3X1
AOAI21X1_14 [i_add2_14_ i_add1_14_ _73_] _74_ d_lut_OAI21X1
AINVX1_44 [_74_] w_C_15_ d_lut_INVX1
AINVX1_45 [i_add2_15_] _75_ d_lut_INVX1
AINVX1_46 [i_add1_15_] _76_ d_lut_INVX1
ANOR2X1_21 [i_add2_14_ i_add1_14_] _77_ d_lut_NOR2X1
AINVX1_47 [_77_] _78_ d_lut_INVX1
ANOR2X1_22 [i_add2_15_ i_add1_15_] _79_ d_lut_NOR2X1
AINVX1_48 [_79_] _80_ d_lut_INVX1
ANAND3X1_21 [_78_ _80_ _73_] _81_ d_lut_NAND3X1
AOAI21X1_15 [_75_ _76_ _81_] w_C_16_ d_lut_OAI21X1
ANOR2X1_23 [_75_ _76_] _82_ d_lut_NOR2X1
AINVX1_49 [_82_] _83_ d_lut_INVX1
AAND2X2_14 [i_add2_16_ i_add1_16_] _84_ d_lut_AND2X2
AINVX1_50 [_84_] _85_ d_lut_INVX1
ANAND3X1_22 [_83_ _85_ _81_] _86_ d_lut_NAND3X1
AOAI21X1_16 [i_add2_16_ i_add1_16_ _86_] _87_ d_lut_OAI21X1
AINVX1_51 [_87_] w_C_17_ d_lut_INVX1
AINVX1_52 [i_add2_17_] _88_ d_lut_INVX1
AINVX1_53 [i_add1_17_] _89_ d_lut_INVX1
ABUFX2_1 [_340__0_] o_result_0_ d_lut_BUFX2
ABUFX2_2 [_340__1_] o_result_1_ d_lut_BUFX2
ABUFX2_3 [_340__2_] o_result_2_ d_lut_BUFX2
ABUFX2_4 [_340__3_] o_result_3_ d_lut_BUFX2
ABUFX2_5 [_340__4_] o_result_4_ d_lut_BUFX2
ABUFX2_6 [_340__5_] o_result_5_ d_lut_BUFX2
ABUFX2_7 [_340__6_] o_result_6_ d_lut_BUFX2
ABUFX2_8 [_340__7_] o_result_7_ d_lut_BUFX2
ABUFX2_9 [_340__8_] o_result_8_ d_lut_BUFX2
ABUFX2_10 [_340__9_] o_result_9_ d_lut_BUFX2
ABUFX2_11 [_340__10_] o_result_10_ d_lut_BUFX2
ABUFX2_12 [_340__11_] o_result_11_ d_lut_BUFX2
ABUFX2_13 [_340__12_] o_result_12_ d_lut_BUFX2
ABUFX2_14 [_340__13_] o_result_13_ d_lut_BUFX2
ABUFX2_15 [_340__14_] o_result_14_ d_lut_BUFX2
ABUFX2_16 [_340__15_] o_result_15_ d_lut_BUFX2
ABUFX2_17 [_340__16_] o_result_16_ d_lut_BUFX2
ABUFX2_18 [_340__17_] o_result_17_ d_lut_BUFX2
ABUFX2_19 [_340__18_] o_result_18_ d_lut_BUFX2
ABUFX2_20 [_340__19_] o_result_19_ d_lut_BUFX2
ABUFX2_21 [_340__20_] o_result_20_ d_lut_BUFX2
ABUFX2_22 [_340__21_] o_result_21_ d_lut_BUFX2
ABUFX2_23 [_340__22_] o_result_22_ d_lut_BUFX2
ABUFX2_24 [_340__23_] o_result_23_ d_lut_BUFX2
ABUFX2_25 [_340__24_] o_result_24_ d_lut_BUFX2
ABUFX2_26 [_340__25_] o_result_25_ d_lut_BUFX2
ABUFX2_27 [_340__26_] o_result_26_ d_lut_BUFX2
ABUFX2_28 [_340__27_] o_result_27_ d_lut_BUFX2
ABUFX2_29 [_340__28_] o_result_28_ d_lut_BUFX2
ABUFX2_30 [_340__29_] o_result_29_ d_lut_BUFX2
ABUFX2_31 [_340__30_] o_result_30_ d_lut_BUFX2
ABUFX2_32 [_340__31_] o_result_31_ d_lut_BUFX2
ABUFX2_33 [_340__32_] o_result_32_ d_lut_BUFX2
ABUFX2_34 [_340__33_] o_result_33_ d_lut_BUFX2
ABUFX2_35 [_340__34_] o_result_34_ d_lut_BUFX2
ABUFX2_36 [_340__35_] o_result_35_ d_lut_BUFX2
ABUFX2_37 [_340__36_] o_result_36_ d_lut_BUFX2
ABUFX2_38 [_340__37_] o_result_37_ d_lut_BUFX2
ABUFX2_39 [_340__38_] o_result_38_ d_lut_BUFX2
ABUFX2_40 [_340__39_] o_result_39_ d_lut_BUFX2
ABUFX2_41 [_340__40_] o_result_40_ d_lut_BUFX2
ABUFX2_42 [_340__41_] o_result_41_ d_lut_BUFX2
ABUFX2_43 [_340__42_] o_result_42_ d_lut_BUFX2
ABUFX2_44 [_340__43_] o_result_43_ d_lut_BUFX2
ABUFX2_45 [_340__44_] o_result_44_ d_lut_BUFX2
ABUFX2_46 [_340__45_] o_result_45_ d_lut_BUFX2
ABUFX2_47 [_340__46_] o_result_46_ d_lut_BUFX2
ABUFX2_48 [_340__47_] o_result_47_ d_lut_BUFX2
ABUFX2_49 [_340__48_] o_result_48_ d_lut_BUFX2
ABUFX2_50 [_340__49_] o_result_49_ d_lut_BUFX2
ABUFX2_51 [_340__50_] o_result_50_ d_lut_BUFX2
ABUFX2_52 [_340__51_] o_result_51_ d_lut_BUFX2
ABUFX2_53 [_340__52_] o_result_52_ d_lut_BUFX2
ABUFX2_54 [_340__53_] o_result_53_ d_lut_BUFX2
ABUFX2_55 [_340__54_] o_result_54_ d_lut_BUFX2
ABUFX2_56 [_340__55_] o_result_55_ d_lut_BUFX2
ABUFX2_57 [_340__56_] o_result_56_ d_lut_BUFX2
ABUFX2_58 [_340__57_] o_result_57_ d_lut_BUFX2
ABUFX2_59 [w_C_58_] o_result_58_ d_lut_BUFX2
AINVX1_54 [w_C_4_] _344_ d_lut_INVX1
AOR2X2_5 [i_add2_4_ i_add1_4_] _345_ d_lut_OR2X2
ANAND2X1_13 [i_add2_4_ i_add1_4_] _346_ d_lut_NAND2X1
ANAND3X1_23 [_344_ _346_ _345_] _347_ d_lut_NAND3X1
ANOR2X1_24 [i_add2_4_ i_add1_4_] _341_ d_lut_NOR2X1
AAND2X2_15 [i_add2_4_ i_add1_4_] _342_ d_lut_AND2X2
AOAI21X1_17 [_341_ _342_ w_C_4_] _343_ d_lut_OAI21X1
ANAND2X1_14 [_343_ _347_] _340__4_ d_lut_NAND2X1
AINVX1_55 [w_C_5_] _351_ d_lut_INVX1
AOR2X2_6 [i_add2_5_ i_add1_5_] _352_ d_lut_OR2X2
ANAND2X1_15 [i_add2_5_ i_add1_5_] _353_ d_lut_NAND2X1
ANAND3X1_24 [_351_ _353_ _352_] _354_ d_lut_NAND3X1
ANOR2X1_25 [i_add2_5_ i_add1_5_] _348_ d_lut_NOR2X1
AAND2X2_16 [i_add2_5_ i_add1_5_] _349_ d_lut_AND2X2
AOAI21X1_18 [_348_ _349_ w_C_5_] _350_ d_lut_OAI21X1
ANAND2X1_16 [_350_ _354_] _340__5_ d_lut_NAND2X1
AINVX1_56 [w_C_6_] _358_ d_lut_INVX1
AOR2X2_7 [i_add2_6_ i_add1_6_] _359_ d_lut_OR2X2
ANAND2X1_17 [i_add2_6_ i_add1_6_] _360_ d_lut_NAND2X1
ANAND3X1_25 [_358_ _360_ _359_] _361_ d_lut_NAND3X1
ANOR2X1_26 [i_add2_6_ i_add1_6_] _355_ d_lut_NOR2X1
AAND2X2_17 [i_add2_6_ i_add1_6_] _356_ d_lut_AND2X2
AOAI21X1_19 [_355_ _356_ w_C_6_] _357_ d_lut_OAI21X1
ANAND2X1_18 [_357_ _361_] _340__6_ d_lut_NAND2X1
AINVX1_57 [w_C_7_] _365_ d_lut_INVX1
AOR2X2_8 [i_add2_7_ i_add1_7_] _366_ d_lut_OR2X2
ANAND2X1_19 [i_add2_7_ i_add1_7_] _367_ d_lut_NAND2X1
ANAND3X1_26 [_365_ _367_ _366_] _368_ d_lut_NAND3X1
ANOR2X1_27 [i_add2_7_ i_add1_7_] _362_ d_lut_NOR2X1
AAND2X2_18 [i_add2_7_ i_add1_7_] _363_ d_lut_AND2X2
AOAI21X1_20 [_362_ _363_ w_C_7_] _364_ d_lut_OAI21X1
ANAND2X1_20 [_364_ _368_] _340__7_ d_lut_NAND2X1
AINVX1_58 [w_C_8_] _372_ d_lut_INVX1
AOR2X2_9 [i_add2_8_ i_add1_8_] _373_ d_lut_OR2X2
ANAND2X1_21 [i_add2_8_ i_add1_8_] _374_ d_lut_NAND2X1
ANAND3X1_27 [_372_ _374_ _373_] _375_ d_lut_NAND3X1
ANOR2X1_28 [i_add2_8_ i_add1_8_] _369_ d_lut_NOR2X1
AAND2X2_19 [i_add2_8_ i_add1_8_] _370_ d_lut_AND2X2
AOAI21X1_21 [_369_ _370_ w_C_8_] _371_ d_lut_OAI21X1
ANAND2X1_22 [_371_ _375_] _340__8_ d_lut_NAND2X1
AINVX1_59 [w_C_9_] _379_ d_lut_INVX1
AOR2X2_10 [i_add2_9_ i_add1_9_] _380_ d_lut_OR2X2
ANAND2X1_23 [i_add2_9_ i_add1_9_] _381_ d_lut_NAND2X1
ANAND3X1_28 [_379_ _381_ _380_] _382_ d_lut_NAND3X1
ANOR2X1_29 [i_add2_9_ i_add1_9_] _376_ d_lut_NOR2X1
AAND2X2_20 [i_add2_9_ i_add1_9_] _377_ d_lut_AND2X2
AOAI21X1_22 [_376_ _377_ w_C_9_] _378_ d_lut_OAI21X1
ANAND2X1_24 [_378_ _382_] _340__9_ d_lut_NAND2X1
AINVX1_60 [w_C_10_] _386_ d_lut_INVX1
AOR2X2_11 [i_add2_10_ i_add1_10_] _387_ d_lut_OR2X2
ANAND2X1_25 [i_add2_10_ i_add1_10_] _388_ d_lut_NAND2X1
ANAND3X1_29 [_386_ _388_ _387_] _389_ d_lut_NAND3X1
ANOR2X1_30 [i_add2_10_ i_add1_10_] _383_ d_lut_NOR2X1
AAND2X2_21 [i_add2_10_ i_add1_10_] _384_ d_lut_AND2X2
AOAI21X1_23 [_383_ _384_ w_C_10_] _385_ d_lut_OAI21X1
ANAND2X1_26 [_385_ _389_] _340__10_ d_lut_NAND2X1
AINVX1_61 [w_C_11_] _393_ d_lut_INVX1
AOR2X2_12 [i_add2_11_ i_add1_11_] _394_ d_lut_OR2X2
ANAND2X1_27 [i_add2_11_ i_add1_11_] _395_ d_lut_NAND2X1
ANAND3X1_30 [_393_ _395_ _394_] _396_ d_lut_NAND3X1
ANOR2X1_31 [i_add2_11_ i_add1_11_] _390_ d_lut_NOR2X1
AAND2X2_22 [i_add2_11_ i_add1_11_] _391_ d_lut_AND2X2
AOAI21X1_24 [_390_ _391_ w_C_11_] _392_ d_lut_OAI21X1
ANAND2X1_28 [_392_ _396_] _340__11_ d_lut_NAND2X1
AINVX1_62 [w_C_12_] _400_ d_lut_INVX1
AOR2X2_13 [i_add2_12_ i_add1_12_] _401_ d_lut_OR2X2
ANAND2X1_29 [i_add2_12_ i_add1_12_] _402_ d_lut_NAND2X1
ANAND3X1_31 [_400_ _402_ _401_] _403_ d_lut_NAND3X1
ANOR2X1_32 [i_add2_12_ i_add1_12_] _397_ d_lut_NOR2X1
AAND2X2_23 [i_add2_12_ i_add1_12_] _398_ d_lut_AND2X2
AOAI21X1_25 [_397_ _398_ w_C_12_] _399_ d_lut_OAI21X1
ANAND2X1_30 [_399_ _403_] _340__12_ d_lut_NAND2X1
AINVX1_63 [w_C_13_] _407_ d_lut_INVX1
AOR2X2_14 [i_add2_13_ i_add1_13_] _408_ d_lut_OR2X2
ANAND2X1_31 [i_add2_13_ i_add1_13_] _409_ d_lut_NAND2X1
ANAND3X1_32 [_407_ _409_ _408_] _410_ d_lut_NAND3X1
ANOR2X1_33 [i_add2_13_ i_add1_13_] _404_ d_lut_NOR2X1
AAND2X2_24 [i_add2_13_ i_add1_13_] _405_ d_lut_AND2X2
AOAI21X1_26 [_404_ _405_ w_C_13_] _406_ d_lut_OAI21X1
ANAND2X1_32 [_406_ _410_] _340__13_ d_lut_NAND2X1
AINVX1_64 [w_C_14_] _414_ d_lut_INVX1
AOR2X2_15 [i_add2_14_ i_add1_14_] _415_ d_lut_OR2X2
ANAND2X1_33 [i_add2_14_ i_add1_14_] _416_ d_lut_NAND2X1
ANAND3X1_33 [_414_ _416_ _415_] _417_ d_lut_NAND3X1
ANOR2X1_34 [i_add2_14_ i_add1_14_] _411_ d_lut_NOR2X1
AAND2X2_25 [i_add2_14_ i_add1_14_] _412_ d_lut_AND2X2
AOAI21X1_27 [_411_ _412_ w_C_14_] _413_ d_lut_OAI21X1
ANAND2X1_34 [_413_ _417_] _340__14_ d_lut_NAND2X1
AINVX1_65 [w_C_15_] _421_ d_lut_INVX1
AOR2X2_16 [i_add2_15_ i_add1_15_] _422_ d_lut_OR2X2
ANAND2X1_35 [i_add2_15_ i_add1_15_] _423_ d_lut_NAND2X1
ANAND3X1_34 [_421_ _423_ _422_] _424_ d_lut_NAND3X1
ANOR2X1_35 [i_add2_15_ i_add1_15_] _418_ d_lut_NOR2X1
AAND2X2_26 [i_add2_15_ i_add1_15_] _419_ d_lut_AND2X2
AOAI21X1_28 [_418_ _419_ w_C_15_] _420_ d_lut_OAI21X1
ANAND2X1_36 [_420_ _424_] _340__15_ d_lut_NAND2X1
AINVX1_66 [w_C_16_] _428_ d_lut_INVX1
AOR2X2_17 [i_add2_16_ i_add1_16_] _429_ d_lut_OR2X2
ANAND2X1_37 [i_add2_16_ i_add1_16_] _430_ d_lut_NAND2X1
ANAND3X1_35 [_428_ _430_ _429_] _431_ d_lut_NAND3X1
ANOR2X1_36 [i_add2_16_ i_add1_16_] _425_ d_lut_NOR2X1
AAND2X2_27 [i_add2_16_ i_add1_16_] _426_ d_lut_AND2X2
AOAI21X1_29 [_425_ _426_ w_C_16_] _427_ d_lut_OAI21X1
ANAND2X1_38 [_427_ _431_] _340__16_ d_lut_NAND2X1
AINVX1_67 [w_C_17_] _435_ d_lut_INVX1
AOR2X2_18 [i_add2_17_ i_add1_17_] _436_ d_lut_OR2X2
ANAND2X1_39 [i_add2_17_ i_add1_17_] _437_ d_lut_NAND2X1
ANAND3X1_36 [_435_ _437_ _436_] _438_ d_lut_NAND3X1
ANOR2X1_37 [i_add2_17_ i_add1_17_] _432_ d_lut_NOR2X1
AAND2X2_28 [i_add2_17_ i_add1_17_] _433_ d_lut_AND2X2
AOAI21X1_30 [_432_ _433_ w_C_17_] _434_ d_lut_OAI21X1
ANAND2X1_40 [_434_ _438_] _340__17_ d_lut_NAND2X1
AINVX1_68 [w_C_18_] _442_ d_lut_INVX1
AOR2X2_19 [i_add2_18_ i_add1_18_] _443_ d_lut_OR2X2
ANAND2X1_41 [i_add2_18_ i_add1_18_] _444_ d_lut_NAND2X1
ANAND3X1_37 [_442_ _444_ _443_] _445_ d_lut_NAND3X1
ANOR2X1_38 [i_add2_18_ i_add1_18_] _439_ d_lut_NOR2X1
AAND2X2_29 [i_add2_18_ i_add1_18_] _440_ d_lut_AND2X2
AOAI21X1_31 [_439_ _440_ w_C_18_] _441_ d_lut_OAI21X1
ANAND2X1_42 [_441_ _445_] _340__18_ d_lut_NAND2X1
AINVX1_69 [w_C_19_] _449_ d_lut_INVX1
AOR2X2_20 [i_add2_19_ i_add1_19_] _450_ d_lut_OR2X2
ANAND2X1_43 [i_add2_19_ i_add1_19_] _451_ d_lut_NAND2X1
ANAND3X1_38 [_449_ _451_ _450_] _452_ d_lut_NAND3X1
ANOR2X1_39 [i_add2_19_ i_add1_19_] _446_ d_lut_NOR2X1
AAND2X2_30 [i_add2_19_ i_add1_19_] _447_ d_lut_AND2X2
AOAI21X1_32 [_446_ _447_ w_C_19_] _448_ d_lut_OAI21X1
ANAND2X1_44 [_448_ _452_] _340__19_ d_lut_NAND2X1
AINVX1_70 [w_C_20_] _456_ d_lut_INVX1
AOR2X2_21 [i_add2_20_ i_add1_20_] _457_ d_lut_OR2X2
ANAND2X1_45 [i_add2_20_ i_add1_20_] _458_ d_lut_NAND2X1
ANAND3X1_39 [_456_ _458_ _457_] _459_ d_lut_NAND3X1
ANOR2X1_40 [i_add2_20_ i_add1_20_] _453_ d_lut_NOR2X1
AAND2X2_31 [i_add2_20_ i_add1_20_] _454_ d_lut_AND2X2
AOAI21X1_33 [_453_ _454_ w_C_20_] _455_ d_lut_OAI21X1
ANAND2X1_46 [_455_ _459_] _340__20_ d_lut_NAND2X1
AINVX1_71 [w_C_21_] _463_ d_lut_INVX1
AOR2X2_22 [i_add2_21_ i_add1_21_] _464_ d_lut_OR2X2
ANAND2X1_47 [i_add2_21_ i_add1_21_] _465_ d_lut_NAND2X1
ANAND3X1_40 [_463_ _465_ _464_] _466_ d_lut_NAND3X1
ANOR2X1_41 [i_add2_21_ i_add1_21_] _460_ d_lut_NOR2X1
AAND2X2_32 [i_add2_21_ i_add1_21_] _461_ d_lut_AND2X2
AOAI21X1_34 [_460_ _461_ w_C_21_] _462_ d_lut_OAI21X1
ANAND2X1_48 [_462_ _466_] _340__21_ d_lut_NAND2X1
AINVX1_72 [w_C_22_] _470_ d_lut_INVX1
AOR2X2_23 [i_add2_22_ i_add1_22_] _471_ d_lut_OR2X2
ANAND2X1_49 [i_add2_22_ i_add1_22_] _472_ d_lut_NAND2X1
ANAND3X1_41 [_470_ _472_ _471_] _473_ d_lut_NAND3X1
ANOR2X1_42 [i_add2_22_ i_add1_22_] _467_ d_lut_NOR2X1
AAND2X2_33 [i_add2_22_ i_add1_22_] _468_ d_lut_AND2X2
AOAI21X1_35 [_467_ _468_ w_C_22_] _469_ d_lut_OAI21X1
ANAND2X1_50 [_469_ _473_] _340__22_ d_lut_NAND2X1
AINVX1_73 [w_C_23_] _477_ d_lut_INVX1
AOR2X2_24 [i_add2_23_ i_add1_23_] _478_ d_lut_OR2X2
ANAND2X1_51 [i_add2_23_ i_add1_23_] _479_ d_lut_NAND2X1
ANAND3X1_42 [_477_ _479_ _478_] _480_ d_lut_NAND3X1
ANOR2X1_43 [i_add2_23_ i_add1_23_] _474_ d_lut_NOR2X1
AAND2X2_34 [i_add2_23_ i_add1_23_] _475_ d_lut_AND2X2
AOAI21X1_36 [_474_ _475_ w_C_23_] _476_ d_lut_OAI21X1
ANAND2X1_52 [_476_ _480_] _340__23_ d_lut_NAND2X1
AINVX1_74 [w_C_24_] _484_ d_lut_INVX1
AOR2X2_25 [i_add2_24_ i_add1_24_] _485_ d_lut_OR2X2
ANAND2X1_53 [i_add2_24_ i_add1_24_] _486_ d_lut_NAND2X1
ANAND3X1_43 [_484_ _486_ _485_] _487_ d_lut_NAND3X1
ANOR2X1_44 [i_add2_24_ i_add1_24_] _481_ d_lut_NOR2X1
AAND2X2_35 [i_add2_24_ i_add1_24_] _482_ d_lut_AND2X2
AOAI21X1_37 [_481_ _482_ w_C_24_] _483_ d_lut_OAI21X1
ANAND2X1_54 [_483_ _487_] _340__24_ d_lut_NAND2X1
AINVX1_75 [w_C_25_] _491_ d_lut_INVX1
AOR2X2_26 [i_add2_25_ i_add1_25_] _492_ d_lut_OR2X2
ANAND2X1_55 [i_add2_25_ i_add1_25_] _493_ d_lut_NAND2X1
ANAND3X1_44 [_491_ _493_ _492_] _494_ d_lut_NAND3X1
ANOR2X1_45 [i_add2_25_ i_add1_25_] _488_ d_lut_NOR2X1
AAND2X2_36 [i_add2_25_ i_add1_25_] _489_ d_lut_AND2X2
AOAI21X1_38 [_488_ _489_ w_C_25_] _490_ d_lut_OAI21X1
ANAND2X1_56 [_490_ _494_] _340__25_ d_lut_NAND2X1
AINVX1_76 [w_C_26_] _498_ d_lut_INVX1
AOR2X2_27 [i_add2_26_ i_add1_26_] _499_ d_lut_OR2X2
ANAND2X1_57 [i_add2_26_ i_add1_26_] _500_ d_lut_NAND2X1
ANAND3X1_45 [_498_ _500_ _499_] _501_ d_lut_NAND3X1
ANOR2X1_46 [i_add2_26_ i_add1_26_] _495_ d_lut_NOR2X1
AAND2X2_37 [i_add2_26_ i_add1_26_] _496_ d_lut_AND2X2
AOAI21X1_39 [_495_ _496_ w_C_26_] _497_ d_lut_OAI21X1
ANAND2X1_58 [_497_ _501_] _340__26_ d_lut_NAND2X1
AINVX1_77 [w_C_27_] _505_ d_lut_INVX1
AOR2X2_28 [i_add2_27_ i_add1_27_] _506_ d_lut_OR2X2
ANAND2X1_59 [i_add2_27_ i_add1_27_] _507_ d_lut_NAND2X1
ANAND3X1_46 [_505_ _507_ _506_] _508_ d_lut_NAND3X1
ANOR2X1_47 [i_add2_27_ i_add1_27_] _502_ d_lut_NOR2X1
AAND2X2_38 [i_add2_27_ i_add1_27_] _503_ d_lut_AND2X2
AOAI21X1_40 [_502_ _503_ w_C_27_] _504_ d_lut_OAI21X1
ANAND2X1_60 [_504_ _508_] _340__27_ d_lut_NAND2X1
AINVX1_78 [w_C_28_] _512_ d_lut_INVX1
AOR2X2_29 [i_add2_28_ i_add1_28_] _513_ d_lut_OR2X2
ANAND2X1_61 [i_add2_28_ i_add1_28_] _514_ d_lut_NAND2X1
ANAND3X1_47 [_512_ _514_ _513_] _515_ d_lut_NAND3X1
ANOR2X1_48 [i_add2_28_ i_add1_28_] _509_ d_lut_NOR2X1
AAND2X2_39 [i_add2_28_ i_add1_28_] _510_ d_lut_AND2X2
AOAI21X1_41 [_509_ _510_ w_C_28_] _511_ d_lut_OAI21X1
ANAND2X1_62 [_511_ _515_] _340__28_ d_lut_NAND2X1
AINVX1_79 [w_C_29_] _519_ d_lut_INVX1
AOR2X2_30 [i_add2_29_ i_add1_29_] _520_ d_lut_OR2X2
ANAND2X1_63 [i_add2_29_ i_add1_29_] _521_ d_lut_NAND2X1
ANAND3X1_48 [_519_ _521_ _520_] _522_ d_lut_NAND3X1
ANOR2X1_49 [i_add2_29_ i_add1_29_] _516_ d_lut_NOR2X1
AAND2X2_40 [i_add2_29_ i_add1_29_] _517_ d_lut_AND2X2
AOAI21X1_42 [_516_ _517_ w_C_29_] _518_ d_lut_OAI21X1
ANAND2X1_64 [_518_ _522_] _340__29_ d_lut_NAND2X1
AINVX1_80 [w_C_30_] _526_ d_lut_INVX1
AOR2X2_31 [i_add2_30_ i_add1_30_] _527_ d_lut_OR2X2
ANAND2X1_65 [i_add2_30_ i_add1_30_] _528_ d_lut_NAND2X1
ANAND3X1_49 [_526_ _528_ _527_] _529_ d_lut_NAND3X1
ANOR2X1_50 [i_add2_30_ i_add1_30_] _523_ d_lut_NOR2X1
AAND2X2_41 [i_add2_30_ i_add1_30_] _524_ d_lut_AND2X2
AOAI21X1_43 [_523_ _524_ w_C_30_] _525_ d_lut_OAI21X1
ANAND2X1_66 [_525_ _529_] _340__30_ d_lut_NAND2X1
AINVX1_81 [w_C_31_] _533_ d_lut_INVX1
AOR2X2_32 [i_add2_31_ i_add1_31_] _534_ d_lut_OR2X2
ANAND2X1_67 [i_add2_31_ i_add1_31_] _535_ d_lut_NAND2X1
ANAND3X1_50 [_533_ _535_ _534_] _536_ d_lut_NAND3X1
ANOR2X1_51 [i_add2_31_ i_add1_31_] _530_ d_lut_NOR2X1
AAND2X2_42 [i_add2_31_ i_add1_31_] _531_ d_lut_AND2X2
AOAI21X1_44 [_530_ _531_ w_C_31_] _532_ d_lut_OAI21X1
ANAND2X1_68 [_532_ _536_] _340__31_ d_lut_NAND2X1
AINVX1_82 [w_C_32_] _540_ d_lut_INVX1
AOR2X2_33 [i_add2_32_ i_add1_32_] _541_ d_lut_OR2X2
ANAND2X1_69 [i_add2_32_ i_add1_32_] _542_ d_lut_NAND2X1
ANAND3X1_51 [_540_ _542_ _541_] _543_ d_lut_NAND3X1
ANOR2X1_52 [i_add2_32_ i_add1_32_] _537_ d_lut_NOR2X1
AAND2X2_43 [i_add2_32_ i_add1_32_] _538_ d_lut_AND2X2
AOAI21X1_45 [_537_ _538_ w_C_32_] _539_ d_lut_OAI21X1
ANAND2X1_70 [_539_ _543_] _340__32_ d_lut_NAND2X1
AINVX1_83 [w_C_33_] _547_ d_lut_INVX1
AOR2X2_34 [i_add2_33_ i_add1_33_] _548_ d_lut_OR2X2
ANAND2X1_71 [i_add2_33_ i_add1_33_] _549_ d_lut_NAND2X1
ANAND3X1_52 [_547_ _549_ _548_] _550_ d_lut_NAND3X1
ANOR2X1_53 [i_add2_33_ i_add1_33_] _544_ d_lut_NOR2X1
AAND2X2_44 [i_add2_33_ i_add1_33_] _545_ d_lut_AND2X2
AOAI21X1_46 [_544_ _545_ w_C_33_] _546_ d_lut_OAI21X1
ANAND2X1_72 [_546_ _550_] _340__33_ d_lut_NAND2X1
AINVX1_84 [w_C_34_] _554_ d_lut_INVX1
AOR2X2_35 [i_add2_34_ i_add1_34_] _555_ d_lut_OR2X2
ANAND2X1_73 [i_add2_34_ i_add1_34_] _556_ d_lut_NAND2X1
ANAND3X1_53 [_554_ _556_ _555_] _557_ d_lut_NAND3X1
ANOR2X1_54 [i_add2_34_ i_add1_34_] _551_ d_lut_NOR2X1
AAND2X2_45 [i_add2_34_ i_add1_34_] _552_ d_lut_AND2X2
AOAI21X1_47 [_551_ _552_ w_C_34_] _553_ d_lut_OAI21X1
ANAND2X1_74 [_553_ _557_] _340__34_ d_lut_NAND2X1
AINVX1_85 [w_C_35_] _561_ d_lut_INVX1
AOR2X2_36 [i_add2_35_ i_add1_35_] _562_ d_lut_OR2X2
ANAND2X1_75 [i_add2_35_ i_add1_35_] _563_ d_lut_NAND2X1
ANAND3X1_54 [_561_ _563_ _562_] _564_ d_lut_NAND3X1
ANOR2X1_55 [i_add2_35_ i_add1_35_] _558_ d_lut_NOR2X1
AAND2X2_46 [i_add2_35_ i_add1_35_] _559_ d_lut_AND2X2
AOAI21X1_48 [_558_ _559_ w_C_35_] _560_ d_lut_OAI21X1
ANAND2X1_76 [_560_ _564_] _340__35_ d_lut_NAND2X1
AINVX1_86 [w_C_36_] _568_ d_lut_INVX1
AOR2X2_37 [i_add2_36_ i_add1_36_] _569_ d_lut_OR2X2
ANAND2X1_77 [i_add2_36_ i_add1_36_] _570_ d_lut_NAND2X1
ANAND3X1_55 [_568_ _570_ _569_] _571_ d_lut_NAND3X1
ANOR2X1_56 [i_add2_36_ i_add1_36_] _565_ d_lut_NOR2X1
AAND2X2_47 [i_add2_36_ i_add1_36_] _566_ d_lut_AND2X2
AOAI21X1_49 [_565_ _566_ w_C_36_] _567_ d_lut_OAI21X1
ANAND2X1_78 [_567_ _571_] _340__36_ d_lut_NAND2X1
AINVX1_87 [w_C_37_] _575_ d_lut_INVX1
AOR2X2_38 [i_add2_37_ i_add1_37_] _576_ d_lut_OR2X2
ANAND2X1_79 [i_add2_37_ i_add1_37_] _577_ d_lut_NAND2X1
ANAND3X1_56 [_575_ _577_ _576_] _578_ d_lut_NAND3X1
ANOR2X1_57 [i_add2_37_ i_add1_37_] _572_ d_lut_NOR2X1
AAND2X2_48 [i_add2_37_ i_add1_37_] _573_ d_lut_AND2X2
AOAI21X1_50 [_572_ _573_ w_C_37_] _574_ d_lut_OAI21X1
ANAND2X1_80 [_574_ _578_] _340__37_ d_lut_NAND2X1
AINVX1_88 [w_C_38_] _582_ d_lut_INVX1
AOR2X2_39 [i_add2_38_ i_add1_38_] _583_ d_lut_OR2X2
ANAND2X1_81 [i_add2_38_ i_add1_38_] _584_ d_lut_NAND2X1
ANAND3X1_57 [_582_ _584_ _583_] _585_ d_lut_NAND3X1
ANOR2X1_58 [i_add2_38_ i_add1_38_] _579_ d_lut_NOR2X1
AAND2X2_49 [i_add2_38_ i_add1_38_] _580_ d_lut_AND2X2
AOAI21X1_51 [_579_ _580_ w_C_38_] _581_ d_lut_OAI21X1
ANAND2X1_82 [_581_ _585_] _340__38_ d_lut_NAND2X1
AINVX1_89 [w_C_39_] _589_ d_lut_INVX1
AOR2X2_40 [i_add2_39_ i_add1_39_] _590_ d_lut_OR2X2
ANAND2X1_83 [i_add2_39_ i_add1_39_] _591_ d_lut_NAND2X1
ANAND3X1_58 [_589_ _591_ _590_] _592_ d_lut_NAND3X1
ANOR2X1_59 [i_add2_39_ i_add1_39_] _586_ d_lut_NOR2X1
AAND2X2_50 [i_add2_39_ i_add1_39_] _587_ d_lut_AND2X2
AOAI21X1_52 [_586_ _587_ w_C_39_] _588_ d_lut_OAI21X1
ANAND2X1_84 [_588_ _592_] _340__39_ d_lut_NAND2X1
AINVX1_90 [w_C_40_] _596_ d_lut_INVX1
AOR2X2_41 [i_add2_40_ i_add1_40_] _597_ d_lut_OR2X2
ANAND2X1_85 [i_add2_40_ i_add1_40_] _598_ d_lut_NAND2X1
ANAND3X1_59 [_596_ _598_ _597_] _599_ d_lut_NAND3X1
ANOR2X1_60 [i_add2_40_ i_add1_40_] _593_ d_lut_NOR2X1
AAND2X2_51 [i_add2_40_ i_add1_40_] _594_ d_lut_AND2X2
AOAI21X1_53 [_593_ _594_ w_C_40_] _595_ d_lut_OAI21X1
ANAND2X1_86 [_595_ _599_] _340__40_ d_lut_NAND2X1
AINVX1_91 [w_C_41_] _603_ d_lut_INVX1
AOR2X2_42 [i_add2_41_ i_add1_41_] _604_ d_lut_OR2X2
ANAND2X1_87 [i_add2_41_ i_add1_41_] _605_ d_lut_NAND2X1
ANAND3X1_60 [_603_ _605_ _604_] _606_ d_lut_NAND3X1
ANOR2X1_61 [i_add2_41_ i_add1_41_] _600_ d_lut_NOR2X1
AAND2X2_52 [i_add2_41_ i_add1_41_] _601_ d_lut_AND2X2
AOAI21X1_54 [_600_ _601_ w_C_41_] _602_ d_lut_OAI21X1
ANAND2X1_88 [_602_ _606_] _340__41_ d_lut_NAND2X1
AINVX1_92 [w_C_42_] _610_ d_lut_INVX1
AOR2X2_43 [i_add2_42_ i_add1_42_] _611_ d_lut_OR2X2
ANAND2X1_89 [i_add2_42_ i_add1_42_] _612_ d_lut_NAND2X1
ANAND3X1_61 [_610_ _612_ _611_] _613_ d_lut_NAND3X1
ANOR2X1_62 [i_add2_42_ i_add1_42_] _607_ d_lut_NOR2X1
AAND2X2_53 [i_add2_42_ i_add1_42_] _608_ d_lut_AND2X2
AOAI21X1_55 [_607_ _608_ w_C_42_] _609_ d_lut_OAI21X1
ANAND2X1_90 [_609_ _613_] _340__42_ d_lut_NAND2X1
AINVX1_93 [w_C_43_] _617_ d_lut_INVX1
AOR2X2_44 [i_add2_43_ i_add1_43_] _618_ d_lut_OR2X2
ANAND2X1_91 [i_add2_43_ i_add1_43_] _619_ d_lut_NAND2X1
ANAND3X1_62 [_617_ _619_ _618_] _620_ d_lut_NAND3X1
ANOR2X1_63 [i_add2_43_ i_add1_43_] _614_ d_lut_NOR2X1
AAND2X2_54 [i_add2_43_ i_add1_43_] _615_ d_lut_AND2X2
AOAI21X1_56 [_614_ _615_ w_C_43_] _616_ d_lut_OAI21X1
ANAND2X1_92 [_616_ _620_] _340__43_ d_lut_NAND2X1
AINVX1_94 [w_C_44_] _624_ d_lut_INVX1
AOR2X2_45 [i_add2_44_ i_add1_44_] _625_ d_lut_OR2X2
ANAND2X1_93 [i_add2_44_ i_add1_44_] _626_ d_lut_NAND2X1
ANAND3X1_63 [_624_ _626_ _625_] _627_ d_lut_NAND3X1
ANOR2X1_64 [i_add2_44_ i_add1_44_] _621_ d_lut_NOR2X1
AAND2X2_55 [i_add2_44_ i_add1_44_] _622_ d_lut_AND2X2
AOAI21X1_57 [_621_ _622_ w_C_44_] _623_ d_lut_OAI21X1
ANAND2X1_94 [_623_ _627_] _340__44_ d_lut_NAND2X1
AINVX1_95 [w_C_45_] _631_ d_lut_INVX1
AOR2X2_46 [i_add2_45_ i_add1_45_] _632_ d_lut_OR2X2
ANAND2X1_95 [i_add2_45_ i_add1_45_] _633_ d_lut_NAND2X1
ANAND3X1_64 [_631_ _633_ _632_] _634_ d_lut_NAND3X1
ANOR2X1_65 [i_add2_45_ i_add1_45_] _628_ d_lut_NOR2X1
AAND2X2_56 [i_add2_45_ i_add1_45_] _629_ d_lut_AND2X2
AOAI21X1_58 [_628_ _629_ w_C_45_] _630_ d_lut_OAI21X1
ANAND2X1_96 [_630_ _634_] _340__45_ d_lut_NAND2X1
AINVX1_96 [w_C_46_] _638_ d_lut_INVX1
AOR2X2_47 [i_add2_46_ i_add1_46_] _639_ d_lut_OR2X2
ANAND2X1_97 [i_add2_46_ i_add1_46_] _640_ d_lut_NAND2X1
ANAND3X1_65 [_638_ _640_ _639_] _641_ d_lut_NAND3X1
ANOR2X1_66 [i_add2_46_ i_add1_46_] _635_ d_lut_NOR2X1
AAND2X2_57 [i_add2_46_ i_add1_46_] _636_ d_lut_AND2X2
AOAI21X1_59 [_635_ _636_ w_C_46_] _637_ d_lut_OAI21X1
ANAND2X1_98 [_637_ _641_] _340__46_ d_lut_NAND2X1
AINVX1_97 [w_C_47_] _645_ d_lut_INVX1
AOR2X2_48 [i_add2_47_ i_add1_47_] _646_ d_lut_OR2X2
ANAND2X1_99 [i_add2_47_ i_add1_47_] _647_ d_lut_NAND2X1
ANAND3X1_66 [_645_ _647_ _646_] _648_ d_lut_NAND3X1
ANOR2X1_67 [i_add2_47_ i_add1_47_] _642_ d_lut_NOR2X1
AAND2X2_58 [i_add2_47_ i_add1_47_] _643_ d_lut_AND2X2
AOAI21X1_60 [_642_ _643_ w_C_47_] _644_ d_lut_OAI21X1
ANAND2X1_100 [_644_ _648_] _340__47_ d_lut_NAND2X1
AINVX1_98 [w_C_48_] _652_ d_lut_INVX1
AOR2X2_49 [i_add2_48_ i_add1_48_] _653_ d_lut_OR2X2
ANAND2X1_101 [i_add2_48_ i_add1_48_] _654_ d_lut_NAND2X1
ANAND3X1_67 [_652_ _654_ _653_] _655_ d_lut_NAND3X1