* XSpice netlist created from SPICE and liberty sources by spi2xspice.py
*SPICE netlist created from BLIF module cla_59bit by blif2BSpice
.subckt cla_59bit a_vdd a_gnd a_i_add1_0_ a_i_add1_1_ a_i_add1_2_ a_i_add1_3_ a_i_add1_4_ a_i_add1_5_ a_i_add1_6_ a_i_add1_7_ a_i_add1_8_ a_i_add1_9_ a_i_add1_10_ a_i_add1_11_ a_i_add1_12_ a_i_add1_13_ a_i_add1_14_ a_i_add1_15_ a_i_add1_16_ a_i_add1_17_ a_i_add1_18_ a_i_add1_19_ a_i_add1_20_ a_i_add1_21_ a_i_add1_22_ a_i_add1_23_ a_i_add1_24_ a_i_add1_25_ a_i_add1_26_ a_i_add1_27_ a_i_add1_28_ a_i_add1_29_ a_i_add1_30_ a_i_add1_31_ a_i_add1_32_ a_i_add1_33_ a_i_add1_34_ a_i_add1_35_ a_i_add1_36_ a_i_add1_37_ a_i_add1_38_ a_i_add1_39_ a_i_add1_40_ a_i_add1_41_ a_i_add1_42_ a_i_add1_43_ a_i_add1_44_ a_i_add1_45_ a_i_add1_46_ a_i_add1_47_ a_i_add1_48_ a_i_add1_49_ a_i_add1_50_ a_i_add1_51_ a_i_add1_52_ a_i_add1_53_ a_i_add1_54_ a_i_add1_55_ a_i_add1_56_ a_i_add1_57_ a_i_add1_58_ a_i_add2_0_ a_i_add2_1_ a_i_add2_2_ a_i_add2_3_ a_i_add2_4_ a_i_add2_5_ a_i_add2_6_ a_i_add2_7_ a_i_add2_8_ a_i_add2_9_ a_i_add2_10_ a_i_add2_11_ a_i_add2_12_ a_i_add2_13_ a_i_add2_14_ a_i_add2_15_ a_i_add2_16_ a_i_add2_17_ a_i_add2_18_ a_i_add2_19_ a_i_add2_20_ a_i_add2_21_ a_i_add2_22_ a_i_add2_23_ a_i_add2_24_ a_i_add2_25_ a_i_add2_26_ a_i_add2_27_ a_i_add2_28_ a_i_add2_29_ a_i_add2_30_ a_i_add2_31_ a_i_add2_32_ a_i_add2_33_ a_i_add2_34_ a_i_add2_35_ a_i_add2_36_ a_i_add2_37_ a_i_add2_38_ a_i_add2_39_ a_i_add2_40_ a_i_add2_41_ a_i_add2_42_ a_i_add2_43_ a_i_add2_44_ a_i_add2_45_ a_i_add2_46_ a_i_add2_47_ a_i_add2_48_ a_i_add2_49_ a_i_add2_50_ a_i_add2_51_ a_i_add2_52_ a_i_add2_53_ a_i_add2_54_ a_i_add2_55_ a_i_add2_56_ a_i_add2_57_ a_i_add2_58_ a_o_result_0_ a_o_result_1_ a_o_result_2_ a_o_result_3_ a_o_result_4_ a_o_result_5_ a_o_result_6_ a_o_result_7_ a_o_result_8_ a_o_result_9_ a_o_result_10_ a_o_result_11_ a_o_result_12_ a_o_result_13_ a_o_result_14_ a_o_result_15_ a_o_result_16_ a_o_result_17_ a_o_result_18_ a_o_result_19_ a_o_result_20_ a_o_result_21_ a_o_result_22_ a_o_result_23_ a_o_result_24_ a_o_result_25_ a_o_result_26_ a_o_result_27_ a_o_result_28_ a_o_result_29_ a_o_result_30_ a_o_result_31_ a_o_result_32_ a_o_result_33_ a_o_result_34_ a_o_result_35_ a_o_result_36_ a_o_result_37_ a_o_result_38_ a_o_result_39_ a_o_result_40_ a_o_result_41_ a_o_result_42_ a_o_result_43_ a_o_result_44_ a_o_result_45_ a_o_result_46_ a_o_result_47_ a_o_result_48_ a_o_result_49_ a_o_result_50_ a_o_result_51_ a_o_result_52_ a_o_result_53_ a_o_result_54_ a_o_result_55_ a_o_result_56_ a_o_result_57_ a_o_result_58_ a_o_result_59_
AOAI21X1_1 [i_add2_43_ i_add1_43_ _276_] _277_ d_lut_OAI21X1
AINVX1_1 [_277_] w_C_44_ d_lut_INVX1
AINVX1_2 [i_add2_44_] _278_ d_lut_INVX1
AINVX1_3 [i_add1_44_] _279_ d_lut_INVX1
ANOR2X1_1 [_278_ _279_] _280_ d_lut_NOR2X1
AINVX1_4 [_280_] _281_ d_lut_INVX1
ANOR2X1_2 [i_add2_43_ i_add1_43_] _282_ d_lut_NOR2X1
AINVX1_5 [_282_] _283_ d_lut_INVX1
ANOR2X1_3 [i_add2_44_ i_add1_44_] _284_ d_lut_NOR2X1
AINVX1_6 [_284_] _285_ d_lut_INVX1
ANAND3X1_1 [_283_ _285_ _276_] _286_ d_lut_NAND3X1
AAND2X2_1 [_286_ _281_] _287_ d_lut_AND2X2
AINVX1_7 [_287_] w_C_45_ d_lut_INVX1
AAND2X2_2 [i_add2_45_ i_add1_45_] _288_ d_lut_AND2X2
AINVX1_8 [_288_] _289_ d_lut_INVX1
ANAND3X1_2 [_281_ _289_ _286_] _290_ d_lut_NAND3X1
AOAI21X1_2 [i_add2_45_ i_add1_45_ _290_] _291_ d_lut_OAI21X1
AINVX1_9 [_291_] w_C_46_ d_lut_INVX1
AINVX1_10 [i_add2_46_] _292_ d_lut_INVX1
AINVX1_11 [i_add1_46_] _293_ d_lut_INVX1
ANOR2X1_4 [_292_ _293_] _294_ d_lut_NOR2X1
AINVX1_12 [_294_] _295_ d_lut_INVX1
ANOR2X1_5 [i_add2_45_ i_add1_45_] _296_ d_lut_NOR2X1
AINVX1_13 [_296_] _297_ d_lut_INVX1
ANOR2X1_6 [i_add2_46_ i_add1_46_] _298_ d_lut_NOR2X1
AINVX1_14 [_298_] _299_ d_lut_INVX1
ANAND3X1_3 [_297_ _299_ _290_] _300_ d_lut_NAND3X1
AAND2X2_3 [_300_ _295_] _301_ d_lut_AND2X2
AINVX1_15 [_301_] w_C_47_ d_lut_INVX1
AAND2X2_4 [i_add2_47_ i_add1_47_] _302_ d_lut_AND2X2
AINVX1_16 [_302_] _303_ d_lut_INVX1
ANAND3X1_4 [_295_ _303_ _300_] _304_ d_lut_NAND3X1
AOAI21X1_3 [i_add2_47_ i_add1_47_ _304_] _305_ d_lut_OAI21X1
AINVX1_17 [_305_] w_C_48_ d_lut_INVX1
ANAND2X1_1 [i_add2_48_ i_add1_48_] _306_ d_lut_NAND2X1
ANOR2X1_7 [i_add2_48_ i_add1_48_] _307_ d_lut_NOR2X1
AOAI21X1_4 [_307_ _305_ _306_] w_C_49_ d_lut_OAI21X1
AOR2X2_1 [i_add2_49_ i_add1_49_] _308_ d_lut_OR2X2
ANOR2X1_8 [i_add2_47_ i_add1_47_] _309_ d_lut_NOR2X1
AINVX1_18 [_309_] _310_ d_lut_INVX1
AINVX1_19 [_307_] _311_ d_lut_INVX1
ANAND3X1_5 [_310_ _311_ _304_] _312_ d_lut_NAND3X1
ANAND2X1_2 [i_add2_49_ i_add1_49_] _313_ d_lut_NAND2X1
ANAND3X1_6 [_306_ _313_ _312_] _314_ d_lut_NAND3X1
AAND2X2_5 [_314_ _308_] w_C_50_ d_lut_AND2X2
AINVX1_20 [i_add2_50_] _315_ d_lut_INVX1
AINVX1_21 [i_add1_50_] _316_ d_lut_INVX1
ANAND2X1_3 [_315_ _316_] _317_ d_lut_NAND2X1
ANAND3X1_7 [_308_ _317_ _314_] _318_ d_lut_NAND3X1
AOAI21X1_5 [_315_ _316_ _318_] w_C_51_ d_lut_OAI21X1
AINVX1_22 [i_add2_51_] _319_ d_lut_INVX1
AINVX1_23 [i_add1_51_] _320_ d_lut_INVX1
ANAND2X1_4 [_319_ _320_] _321_ d_lut_NAND2X1
ANAND2X1_5 [i_add2_50_ i_add1_50_] _322_ d_lut_NAND2X1
ANAND2X1_6 [i_add2_51_ i_add1_51_] _323_ d_lut_NAND2X1
ANAND3X1_8 [_322_ _323_ _318_] _324_ d_lut_NAND3X1
AAND2X2_6 [_324_ _321_] w_C_52_ d_lut_AND2X2
AINVX1_24 [i_add2_52_] _325_ d_lut_INVX1
AINVX1_25 [i_add1_52_] _326_ d_lut_INVX1
ANAND2X1_7 [_325_ _326_] _327_ d_lut_NAND2X1
ANAND3X1_9 [_321_ _327_ _324_] _328_ d_lut_NAND3X1
AOAI21X1_6 [_325_ _326_ _328_] w_C_53_ d_lut_OAI21X1
AINVX1_26 [i_add2_53_] _329_ d_lut_INVX1
AINVX1_27 [i_add1_53_] _330_ d_lut_INVX1
AOAI21X1_7 [i_add2_53_ i_add1_53_ w_C_53_] _331_ d_lut_OAI21X1
AOAI21X1_8 [_329_ _330_ _331_] w_C_54_ d_lut_OAI21X1
ANOR2X1_9 [_329_ _330_] _332_ d_lut_NOR2X1
AINVX1_28 [_332_] _333_ d_lut_INVX1
AAND2X2_7 [i_add2_54_ i_add1_54_] _334_ d_lut_AND2X2
AINVX1_29 [_334_] _335_ d_lut_INVX1
ANAND3X1_10 [_333_ _335_ _331_] _336_ d_lut_NAND3X1
AOAI21X1_9 [i_add2_54_ i_add1_54_ _336_] _337_ d_lut_OAI21X1
AINVX1_30 [_337_] w_C_55_ d_lut_INVX1
ANAND2X1_8 [i_add2_55_ i_add1_55_] _338_ d_lut_NAND2X1
ANOR2X1_10 [i_add2_55_ i_add1_55_] _339_ d_lut_NOR2X1
AOAI21X1_10 [_339_ _337_ _338_] w_C_56_ d_lut_OAI21X1
ANAND2X1_9 [i_add2_56_ i_add1_56_] _340_ d_lut_NAND2X1
AINVX1_31 [_339_] _341_ d_lut_INVX1
ANOR2X1_11 [i_add2_53_ i_add1_53_] _342_ d_lut_NOR2X1
AINVX1_32 [_342_] _343_ d_lut_INVX1
ANOR2X1_12 [_325_ _326_] _344_ d_lut_NOR2X1
AINVX1_33 [_344_] _345_ d_lut_INVX1
ANAND3X1_11 [_345_ _333_ _328_] _346_ d_lut_NAND3X1
ANOR2X1_13 [i_add2_54_ i_add1_54_] _347_ d_lut_NOR2X1
AINVX1_34 [_347_] _348_ d_lut_INVX1
ANAND3X1_12 [_343_ _348_ _346_] _349_ d_lut_NAND3X1
ANAND3X1_13 [_335_ _338_ _349_] _350_ d_lut_NAND3X1
AOR2X2_2 [i_add2_56_ i_add1_56_] _351_ d_lut_OR2X2
ANAND3X1_14 [_341_ _351_ _350_] _352_ d_lut_NAND3X1
ANAND2X1_10 [_340_ _352_] w_C_57_ d_lut_NAND2X1
AOR2X2_3 [i_add2_57_ i_add1_57_] _353_ d_lut_OR2X2
ANAND2X1_11 [i_add2_57_ i_add1_57_] _354_ d_lut_NAND2X1
ANAND3X1_15 [_340_ _354_ _352_] _355_ d_lut_NAND3X1
AAND2X2_8 [_355_ _353_] w_C_58_ d_lut_AND2X2
ANAND2X1_12 [i_add2_58_ i_add1_58_] _356_ d_lut_NAND2X1
AOR2X2_4 [i_add2_58_ i_add1_58_] _357_ d_lut_OR2X2
ANAND3X1_16 [_353_ _357_ _355_] _358_ d_lut_NAND3X1
ANAND2X1_13 [_356_ _358_] w_C_59_ d_lut_NAND2X1
ANAND2X1_14 [i_add2_0_ i_add1_0_] _0_ d_lut_NAND2X1
AINVX1_35 [_0_] w_C_1_ d_lut_INVX1
ANAND2X1_15 [i_add2_1_ i_add1_1_] _1_ d_lut_NAND2X1
ANAND2X1_16 [_0_ _1_] _2_ d_lut_NAND2X1
AOAI21X1_11 [i_add2_1_ i_add1_1_ _2_] _3_ d_lut_OAI21X1
AINVX1_36 [_3_] w_C_2_ d_lut_INVX1
ANAND2X1_17 [i_add2_2_ i_add1_2_] _4_ d_lut_NAND2X1
AOR2X2_5 [i_add2_1_ i_add1_1_] _5_ d_lut_OR2X2
AOR2X2_6 [i_add2_2_ i_add1_2_] _6_ d_lut_OR2X2
ANAND3X1_17 [_5_ _6_ _2_] _7_ d_lut_NAND3X1
ANAND2X1_18 [_4_ _7_] w_C_3_ d_lut_NAND2X1
AINVX1_37 [i_add2_3_] _8_ d_lut_INVX1
AINVX1_38 [i_add1_3_] _9_ d_lut_INVX1
ANAND2X1_19 [_8_ _9_] _10_ d_lut_NAND2X1
ANAND2X1_20 [i_add2_3_ i_add1_3_] _11_ d_lut_NAND2X1
ANAND3X1_18 [_4_ _11_ _7_] _12_ d_lut_NAND3X1
AAND2X2_9 [_12_ _10_] w_C_4_ d_lut_AND2X2
ANAND2X1_21 [i_add2_4_ i_add1_4_] _13_ d_lut_NAND2X1
AOR2X2_7 [i_add2_4_ i_add1_4_] _14_ d_lut_OR2X2
ANAND3X1_19 [_10_ _14_ _12_] _15_ d_lut_NAND3X1
ANAND2X1_22 [_13_ _15_] w_C_5_ d_lut_NAND2X1
ANOR2X1_14 [i_add2_5_ i_add1_5_] _16_ d_lut_NOR2X1
AINVX1_39 [_16_] _17_ d_lut_INVX1
ANAND2X1_23 [i_add2_5_ i_add1_5_] _18_ d_lut_NAND2X1
ANAND3X1_20 [_13_ _18_ _15_] _19_ d_lut_NAND3X1
AAND2X2_10 [_19_ _17_] w_C_6_ d_lut_AND2X2
AINVX1_40 [i_add2_6_] _20_ d_lut_INVX1
AINVX1_41 [i_add1_6_] _21_ d_lut_INVX1
ANOR2X1_15 [i_add2_6_ i_add1_6_] _22_ d_lut_NOR2X1
AINVX1_42 [_22_] _23_ d_lut_INVX1
ANAND3X1_21 [_17_ _23_ _19_] _24_ d_lut_NAND3X1
AOAI21X1_12 [_20_ _21_ _24_] w_C_7_ d_lut_OAI21X1
ANOR2X1_16 [i_add2_7_ i_add1_7_] _25_ d_lut_NOR2X1
AINVX1_43 [_25_] _26_ d_lut_INVX1
ANOR2X1_17 [_20_ _21_] _27_ d_lut_NOR2X1
AINVX1_44 [_27_] _28_ d_lut_INVX1
AINVX1_45 [i_add2_7_] _29_ d_lut_INVX1
AINVX1_46 [i_add1_7_] _30_ d_lut_INVX1
ANOR2X1_18 [_29_ _30_] _31_ d_lut_NOR2X1
AINVX1_47 [_31_] _32_ d_lut_INVX1
ANAND3X1_22 [_28_ _32_ _24_] _33_ d_lut_NAND3X1
AAND2X2_11 [_33_ _26_] w_C_8_ d_lut_AND2X2
AINVX1_48 [i_add2_8_] _34_ d_lut_INVX1
AINVX1_49 [i_add1_8_] _35_ d_lut_INVX1
ANOR2X1_19 [i_add2_8_ i_add1_8_] _36_ d_lut_NOR2X1
AINVX1_50 [_36_] _37_ d_lut_INVX1
ANAND3X1_23 [_26_ _37_ _33_] _38_ d_lut_NAND3X1
AOAI21X1_13 [_34_ _35_ _38_] w_C_9_ d_lut_OAI21X1
ANOR2X1_20 [_34_ _35_] _39_ d_lut_NOR2X1
AINVX1_51 [_39_] _40_ d_lut_INVX1
AAND2X2_12 [i_add2_9_ i_add1_9_] _41_ d_lut_AND2X2
AINVX1_52 [_41_] _42_ d_lut_INVX1
ANAND3X1_24 [_40_ _42_ _38_] _43_ d_lut_NAND3X1
AOAI21X1_14 [i_add2_9_ i_add1_9_ _43_] _44_ d_lut_OAI21X1
AINVX1_53 [_44_] w_C_10_ d_lut_INVX1
AINVX1_54 [i_add2_10_] _45_ d_lut_INVX1
AINVX1_55 [i_add1_10_] _46_ d_lut_INVX1
ANOR2X1_21 [i_add2_9_ i_add1_9_] _47_ d_lut_NOR2X1
AINVX1_56 [_47_] _48_ d_lut_INVX1
ANOR2X1_22 [i_add2_10_ i_add1_10_] _49_ d_lut_NOR2X1
AINVX1_57 [_49_] _50_ d_lut_INVX1
ANAND3X1_25 [_48_ _50_ _43_] _51_ d_lut_NAND3X1
AOAI21X1_15 [_45_ _46_ _51_] w_C_11_ d_lut_OAI21X1
ANOR2X1_23 [_45_ _46_] _52_ d_lut_NOR2X1
AINVX1_58 [_52_] _53_ d_lut_INVX1
AAND2X2_13 [i_add2_11_ i_add1_11_] _54_ d_lut_AND2X2
AINVX1_59 [_54_] _55_ d_lut_INVX1
ANAND3X1_26 [_53_ _55_ _51_] _56_ d_lut_NAND3X1
AOAI21X1_16 [i_add2_11_ i_add1_11_ _56_] _57_ d_lut_OAI21X1
AINVX1_60 [_57_] w_C_12_ d_lut_INVX1
AINVX1_61 [i_add2_12_] _58_ d_lut_INVX1
AINVX1_62 [i_add1_12_] _59_ d_lut_INVX1
ANOR2X1_24 [i_add2_11_ i_add1_11_] _60_ d_lut_NOR2X1
AINVX1_63 [_60_] _61_ d_lut_INVX1
ANOR2X1_25 [i_add2_12_ i_add1_12_] _62_ d_lut_NOR2X1
AINVX1_64 [_62_] _63_ d_lut_INVX1
ANAND3X1_27 [_61_ _63_ _56_] _64_ d_lut_NAND3X1
AOAI21X1_17 [_58_ _59_ _64_] w_C_13_ d_lut_OAI21X1
ANOR2X1_26 [_58_ _59_] _65_ d_lut_NOR2X1
AINVX1_65 [_65_] _66_ d_lut_INVX1
AAND2X2_14 [i_add2_13_ i_add1_13_] _67_ d_lut_AND2X2
AINVX1_66 [_67_] _68_ d_lut_INVX1
ANAND3X1_28 [_66_ _68_ _64_] _69_ d_lut_NAND3X1
AOAI21X1_18 [i_add2_13_ i_add1_13_ _69_] _70_ d_lut_OAI21X1
AINVX1_67 [_70_] w_C_14_ d_lut_INVX1
AINVX1_68 [i_add2_14_] _71_ d_lut_INVX1
AINVX1_69 [i_add1_14_] _72_ d_lut_INVX1
ANOR2X1_27 [i_add2_13_ i_add1_13_] _73_ d_lut_NOR2X1
AINVX1_70 [_73_] _74_ d_lut_INVX1
ANOR2X1_28 [i_add2_14_ i_add1_14_] _75_ d_lut_NOR2X1
AINVX1_71 [_75_] _76_ d_lut_INVX1
ANAND3X1_29 [_74_ _76_ _69_] _77_ d_lut_NAND3X1
AOAI21X1_19 [_71_ _72_ _77_] w_C_15_ d_lut_OAI21X1
ABUFX2_1 [_359__0_] o_result_0_ d_lut_BUFX2
ABUFX2_2 [_359__1_] o_result_1_ d_lut_BUFX2
ABUFX2_3 [_359__2_] o_result_2_ d_lut_BUFX2
ABUFX2_4 [_359__3_] o_result_3_ d_lut_BUFX2
ABUFX2_5 [_359__4_] o_result_4_ d_lut_BUFX2
ABUFX2_6 [_359__5_] o_result_5_ d_lut_BUFX2
ABUFX2_7 [_359__6_] o_result_6_ d_lut_BUFX2
ABUFX2_8 [_359__7_] o_result_7_ d_lut_BUFX2
ABUFX2_9 [_359__8_] o_result_8_ d_lut_BUFX2
ABUFX2_10 [_359__9_] o_result_9_ d_lut_BUFX2
ABUFX2_11 [_359__10_] o_result_10_ d_lut_BUFX2
ABUFX2_12 [_359__11_] o_result_11_ d_lut_BUFX2
ABUFX2_13 [_359__12_] o_result_12_ d_lut_BUFX2
ABUFX2_14 [_359__13_] o_result_13_ d_lut_BUFX2
ABUFX2_15 [_359__14_] o_result_14_ d_lut_BUFX2
ABUFX2_16 [_359__15_] o_result_15_ d_lut_BUFX2
ABUFX2_17 [_359__16_] o_result_16_ d_lut_BUFX2
ABUFX2_18 [_359__17_] o_result_17_ d_lut_BUFX2
ABUFX2_19 [_359__18_] o_result_18_ d_lut_BUFX2
ABUFX2_20 [_359__19_] o_result_19_ d_lut_BUFX2
ABUFX2_21 [_359__20_] o_result_20_ d_lut_BUFX2
ABUFX2_22 [_359__21_] o_result_21_ d_lut_BUFX2
ABUFX2_23 [_359__22_] o_result_22_ d_lut_BUFX2
ABUFX2_24 [_359__23_] o_result_23_ d_lut_BUFX2
ABUFX2_25 [_359__24_] o_result_24_ d_lut_BUFX2
ABUFX2_26 [_359__25_] o_result_25_ d_lut_BUFX2
ABUFX2_27 [_359__26_] o_result_26_ d_lut_BUFX2
ABUFX2_28 [_359__27_] o_result_27_ d_lut_BUFX2
ABUFX2_29 [_359__28_] o_result_28_ d_lut_BUFX2
ABUFX2_30 [_359__29_] o_result_29_ d_lut_BUFX2
ABUFX2_31 [_359__30_] o_result_30_ d_lut_BUFX2
ABUFX2_32 [_359__31_] o_result_31_ d_lut_BUFX2
ABUFX2_33 [_359__32_] o_result_32_ d_lut_BUFX2
ABUFX2_34 [_359__33_] o_result_33_ d_lut_BUFX2
ABUFX2_35 [_359__34_] o_result_34_ d_lut_BUFX2
ABUFX2_36 [_359__35_] o_result_35_ d_lut_BUFX2
ABUFX2_37 [_359__36_] o_result_36_ d_lut_BUFX2
ABUFX2_38 [_359__37_] o_result_37_ d_lut_BUFX2
ABUFX2_39 [_359__38_] o_result_38_ d_lut_BUFX2
ABUFX2_40 [_359__39_] o_result_39_ d_lut_BUFX2
ABUFX2_41 [_359__40_] o_result_40_ d_lut_BUFX2
ABUFX2_42 [_359__41_] o_result_41_ d_lut_BUFX2
ABUFX2_43 [_359__42_] o_result_42_ d_lut_BUFX2
ABUFX2_44 [_359__43_] o_result_43_ d_lut_BUFX2
ABUFX2_45 [_359__44_] o_result_44_ d_lut_BUFX2
ABUFX2_46 [_359__45_] o_result_45_ d_lut_BUFX2
ABUFX2_47 [_359__46_] o_result_46_ d_lut_BUFX2
ABUFX2_48 [_359__47_] o_result_47_ d_lut_BUFX2
ABUFX2_49 [_359__48_] o_result_48_ d_lut_BUFX2
ABUFX2_50 [_359__49_] o_result_49_ d_lut_BUFX2
ABUFX2_51 [_359__50_] o_result_50_ d_lut_BUFX2
ABUFX2_52 [_359__51_] o_result_51_ d_lut_BUFX2
ABUFX2_53 [_359__52_] o_result_52_ d_lut_BUFX2
ABUFX2_54 [_359__53_] o_result_53_ d_lut_BUFX2
ABUFX2_55 [_359__54_] o_result_54_ d_lut_BUFX2
ABUFX2_56 [_359__55_] o_result_55_ d_lut_BUFX2
ABUFX2_57 [_359__56_] o_result_56_ d_lut_BUFX2
ABUFX2_58 [_359__57_] o_result_57_ d_lut_BUFX2
ABUFX2_59 [_359__58_] o_result_58_ d_lut_BUFX2
ABUFX2_60 [w_C_59_] o_result_59_ d_lut_BUFX2
AINVX1_72 [w_C_4_] _363_ d_lut_INVX1
AOR2X2_8 [i_add2_4_ i_add1_4_] _364_ d_lut_OR2X2
ANAND2X1_24 [i_add2_4_ i_add1_4_] _365_ d_lut_NAND2X1
ANAND3X1_30 [_363_ _365_ _364_] _366_ d_lut_NAND3X1
ANOR2X1_29 [i_add2_4_ i_add1_4_] _360_ d_lut_NOR2X1
AAND2X2_15 [i_add2_4_ i_add1_4_] _361_ d_lut_AND2X2
AOAI21X1_20 [_360_ _361_ w_C_4_] _362_ d_lut_OAI21X1
ANAND2X1_25 [_362_ _366_] _359__4_ d_lut_NAND2X1
AINVX1_73 [w_C_5_] _370_ d_lut_INVX1
AOR2X2_9 [i_add2_5_ i_add1_5_] _371_ d_lut_OR2X2
ANAND2X1_26 [i_add2_5_ i_add1_5_] _372_ d_lut_NAND2X1
ANAND3X1_31 [_370_ _372_ _371_] _373_ d_lut_NAND3X1
ANOR2X1_30 [i_add2_5_ i_add1_5_] _367_ d_lut_NOR2X1
AAND2X2_16 [i_add2_5_ i_add1_5_] _368_ d_lut_AND2X2
AOAI21X1_21 [_367_ _368_ w_C_5_] _369_ d_lut_OAI21X1
ANAND2X1_27 [_369_ _373_] _359__5_ d_lut_NAND2X1
AINVX1_74 [w_C_6_] _377_ d_lut_INVX1
AOR2X2_10 [i_add2_6_ i_add1_6_] _378_ d_lut_OR2X2
ANAND2X1_28 [i_add2_6_ i_add1_6_] _379_ d_lut_NAND2X1
ANAND3X1_32 [_377_ _379_ _378_] _380_ d_lut_NAND3X1
ANOR2X1_31 [i_add2_6_ i_add1_6_] _374_ d_lut_NOR2X1
AAND2X2_17 [i_add2_6_ i_add1_6_] _375_ d_lut_AND2X2
AOAI21X1_22 [_374_ _375_ w_C_6_] _376_ d_lut_OAI21X1
ANAND2X1_29 [_376_ _380_] _359__6_ d_lut_NAND2X1
AINVX1_75 [w_C_7_] _384_ d_lut_INVX1
AOR2X2_11 [i_add2_7_ i_add1_7_] _385_ d_lut_OR2X2
ANAND2X1_30 [i_add2_7_ i_add1_7_] _386_ d_lut_NAND2X1
ANAND3X1_33 [_384_ _386_ _385_] _387_ d_lut_NAND3X1
ANOR2X1_32 [i_add2_7_ i_add1_7_] _381_ d_lut_NOR2X1
AAND2X2_18 [i_add2_7_ i_add1_7_] _382_ d_lut_AND2X2
AOAI21X1_23 [_381_ _382_ w_C_7_] _383_ d_lut_OAI21X1
ANAND2X1_31 [_383_ _387_] _359__7_ d_lut_NAND2X1
AINVX1_76 [w_C_8_] _391_ d_lut_INVX1
AOR2X2_12 [i_add2_8_ i_add1_8_] _392_ d_lut_OR2X2
ANAND2X1_32 [i_add2_8_ i_add1_8_] _393_ d_lut_NAND2X1
ANAND3X1_34 [_391_ _393_ _392_] _394_ d_lut_NAND3X1
ANOR2X1_33 [i_add2_8_ i_add1_8_] _388_ d_lut_NOR2X1
AAND2X2_19 [i_add2_8_ i_add1_8_] _389_ d_lut_AND2X2
AOAI21X1_24 [_388_ _389_ w_C_8_] _390_ d_lut_OAI21X1
ANAND2X1_33 [_390_ _394_] _359__8_ d_lut_NAND2X1
AINVX1_77 [w_C_9_] _398_ d_lut_INVX1
AOR2X2_13 [i_add2_9_ i_add1_9_] _399_ d_lut_OR2X2
ANAND2X1_34 [i_add2_9_ i_add1_9_] _400_ d_lut_NAND2X1
ANAND3X1_35 [_398_ _400_ _399_] _401_ d_lut_NAND3X1
ANOR2X1_34 [i_add2_9_ i_add1_9_] _395_ d_lut_NOR2X1
AAND2X2_20 [i_add2_9_ i_add1_9_] _396_ d_lut_AND2X2
AOAI21X1_25 [_395_ _396_ w_C_9_] _397_ d_lut_OAI21X1
ANAND2X1_35 [_397_ _401_] _359__9_ d_lut_NAND2X1
AINVX1_78 [w_C_10_] _405_ d_lut_INVX1
AOR2X2_14 [i_add2_10_ i_add1_10_] _406_ d_lut_OR2X2
ANAND2X1_36 [i_add2_10_ i_add1_10_] _407_ d_lut_NAND2X1
ANAND3X1_36 [_405_ _407_ _406_] _408_ d_lut_NAND3X1
ANOR2X1_35 [i_add2_10_ i_add1_10_] _402_ d_lut_NOR2X1
AAND2X2_21 [i_add2_10_ i_add1_10_] _403_ d_lut_AND2X2
AOAI21X1_26 [_402_ _403_ w_C_10_] _404_ d_lut_OAI21X1
ANAND2X1_37 [_404_ _408_] _359__10_ d_lut_NAND2X1
AINVX1_79 [w_C_11_] _412_ d_lut_INVX1
AOR2X2_15 [i_add2_11_ i_add1_11_] _413_ d_lut_OR2X2
ANAND2X1_38 [i_add2_11_ i_add1_11_] _414_ d_lut_NAND2X1
ANAND3X1_37 [_412_ _414_ _413_] _415_ d_lut_NAND3X1
ANOR2X1_36 [i_add2_11_ i_add1_11_] _409_ d_lut_NOR2X1
AAND2X2_22 [i_add2_11_ i_add1_11_] _410_ d_lut_AND2X2
AOAI21X1_27 [_409_ _410_ w_C_11_] _411_ d_lut_OAI21X1
ANAND2X1_39 [_411_ _415_] _359__11_ d_lut_NAND2X1
AINVX1_80 [w_C_12_] _419_ d_lut_INVX1
AOR2X2_16 [i_add2_12_ i_add1_12_] _420_ d_lut_OR2X2
ANAND2X1_40 [i_add2_12_ i_add1_12_] _421_ d_lut_NAND2X1
ANAND3X1_38 [_419_ _421_ _420_] _422_ d_lut_NAND3X1
ANOR2X1_37 [i_add2_12_ i_add1_12_] _416_ d_lut_NOR2X1
AAND2X2_23 [i_add2_12_ i_add1_12_] _417_ d_lut_AND2X2
AOAI21X1_28 [_416_ _417_ w_C_12_] _418_ d_lut_OAI21X1
ANAND2X1_41 [_418_ _422_] _359__12_ d_lut_NAND2X1
AINVX1_81 [w_C_13_] _426_ d_lut_INVX1
AOR2X2_17 [i_add2_13_ i_add1_13_] _427_ d_lut_OR2X2
ANAND2X1_42 [i_add2_13_ i_add1_13_] _428_ d_lut_NAND2X1
ANAND3X1_39 [_426_ _428_ _427_] _429_ d_lut_NAND3X1
ANOR2X1_38 [i_add2_13_ i_add1_13_] _423_ d_lut_NOR2X1
AAND2X2_24 [i_add2_13_ i_add1_13_] _424_ d_lut_AND2X2
AOAI21X1_29 [_423_ _424_ w_C_13_] _425_ d_lut_OAI21X1
ANAND2X1_43 [_425_ _429_] _359__13_ d_lut_NAND2X1
AINVX1_82 [w_C_14_] _433_ d_lut_INVX1
AOR2X2_18 [i_add2_14_ i_add1_14_] _434_ d_lut_OR2X2
ANAND2X1_44 [i_add2_14_ i_add1_14_] _435_ d_lut_NAND2X1
ANAND3X1_40 [_433_ _435_ _434_] _436_ d_lut_NAND3X1
ANOR2X1_39 [i_add2_14_ i_add1_14_] _430_ d_lut_NOR2X1
AAND2X2_25 [i_add2_14_ i_add1_14_] _431_ d_lut_AND2X2
AOAI21X1_30 [_430_ _431_ w_C_14_] _432_ d_lut_OAI21X1
ANAND2X1_45 [_432_ _436_] _359__14_ d_lut_NAND2X1
AINVX1_83 [w_C_15_] _440_ d_lut_INVX1
AOR2X2_19 [i_add2_15_ i_add1_15_] _441_ d_lut_OR2X2
ANAND2X1_46 [i_add2_15_ i_add1_15_] _442_ d_lut_NAND2X1
ANAND3X1_41 [_440_ _442_ _441_] _443_ d_lut_NAND3X1
ANOR2X1_40 [i_add2_15_ i_add1_15_] _437_ d_lut_NOR2X1
AAND2X2_26 [i_add2_15_ i_add1_15_] _438_ d_lut_AND2X2
AOAI21X1_31 [_437_ _438_ w_C_15_] _439_ d_lut_OAI21X1
ANAND2X1_47 [_439_ _443_] _359__15_ d_lut_NAND2X1
AINVX1_84 [w_C_16_] _447_ d_lut_INVX1
AOR2X2_20 [i_add2_16_ i_add1_16_] _448_ d_lut_OR2X2
ANAND2X1_48 [i_add2_16_ i_add1_16_] _449_ d_lut_NAND2X1
ANAND3X1_42 [_447_ _449_ _448_] _450_ d_lut_NAND3X1
ANOR2X1_41 [i_add2_16_ i_add1_16_] _444_ d_lut_NOR2X1
AAND2X2_27 [i_add2_16_ i_add1_16_] _445_ d_lut_AND2X2
AOAI21X1_32 [_444_ _445_ w_C_16_] _446_ d_lut_OAI21X1
ANAND2X1_49 [_446_ _450_] _359__16_ d_lut_NAND2X1
AINVX1_85 [w_C_17_] _454_ d_lut_INVX1
AOR2X2_21 [i_add2_17_ i_add1_17_] _455_ d_lut_OR2X2
ANAND2X1_50 [i_add2_17_ i_add1_17_] _456_ d_lut_NAND2X1
ANAND3X1_43 [_454_ _456_ _455_] _457_ d_lut_NAND3X1
ANOR2X1_42 [i_add2_17_ i_add1_17_] _451_ d_lut_NOR2X1
AAND2X2_28 [i_add2_17_ i_add1_17_] _452_ d_lut_AND2X2
AOAI21X1_33 [_451_ _452_ w_C_17_] _453_ d_lut_OAI21X1
ANAND2X1_51 [_453_ _457_] _359__17_ d_lut_NAND2X1
AINVX1_86 [w_C_18_] _461_ d_lut_INVX1
AOR2X2_22 [i_add2_18_ i_add1_18_] _462_ d_lut_OR2X2
ANAND2X1_52 [i_add2_18_ i_add1_18_] _463_ d_lut_NAND2X1
ANAND3X1_44 [_461_ _463_ _462_] _464_ d_lut_NAND3X1
ANOR2X1_43 [i_add2_18_ i_add1_18_] _458_ d_lut_NOR2X1
AAND2X2_29 [i_add2_18_ i_add1_18_] _459_ d_lut_AND2X2
AOAI21X1_34 [_458_ _459_ w_C_18_] _460_ d_lut_OAI21X1
ANAND2X1_53 [_460_ _464_] _359__18_ d_lut_NAND2X1
AINVX1_87 [w_C_19_] _468_ d_lut_INVX1
AOR2X2_23 [i_add2_19_ i_add1_19_] _469_ d_lut_OR2X2
ANAND2X1_54 [i_add2_19_ i_add1_19_] _470_ d_lut_NAND2X1
ANAND3X1_45 [_468_ _470_ _469_] _471_ d_lut_NAND3X1
ANOR2X1_44 [i_add2_19_ i_add1_19_] _465_ d_lut_NOR2X1
AAND2X2_30 [i_add2_19_ i_add1_19_] _466_ d_lut_AND2X2
AOAI21X1_35 [_465_ _466_ w_C_19_] _467_ d_lut_OAI21X1
ANAND2X1_55 [_467_ _471_] _359__19_ d_lut_NAND2X1
AINVX1_88 [w_C_20_] _475_ d_lut_INVX1
AOR2X2_24 [i_add2_20_ i_add1_20_] _476_ d_lut_OR2X2
ANAND2X1_56 [i_add2_20_ i_add1_20_] _477_ d_lut_NAND2X1
ANAND3X1_46 [_475_ _477_ _476_] _478_ d_lut_NAND3X1
ANOR2X1_45 [i_add2_20_ i_add1_20_] _472_ d_lut_NOR2X1
AAND2X2_31 [i_add2_20_ i_add1_20_] _473_ d_lut_AND2X2
AOAI21X1_36 [_472_ _473_ w_C_20_] _474_ d_lut_OAI21X1
ANAND2X1_57 [_474_ _478_] _359__20_ d_lut_NAND2X1
AINVX1_89 [w_C_21_] _482_ d_lut_INVX1
AOR2X2_25 [i_add2_21_ i_add1_21_] _483_ d_lut_OR2X2
ANAND2X1_58 [i_add2_21_ i_add1_21_] _484_ d_lut_NAND2X1
ANAND3X1_47 [_482_ _484_ _483_] _485_ d_lut_NAND3X1
ANOR2X1_46 [i_add2_21_ i_add1_21_] _479_ d_lut_NOR2X1
AAND2X2_32 [i_add2_21_ i_add1_21_] _480_ d_lut_AND2X2
AOAI21X1_37 [_479_ _480_ w_C_21_] _481_ d_lut_OAI21X1
ANAND2X1_59 [_481_ _485_] _359__21_ d_lut_NAND2X1
AINVX1_90 [w_C_22_] _489_ d_lut_INVX1
AOR2X2_26 [i_add2_22_ i_add1_22_] _490_ d_lut_OR2X2
ANAND2X1_60 [i_add2_22_ i_add1_22_] _491_ d_lut_NAND2X1
ANAND3X1_48 [_489_ _491_ _490_] _492_ d_lut_NAND3X1
ANOR2X1_47 [i_add2_22_ i_add1_22_] _486_ d_lut_NOR2X1
AAND2X2_33 [i_add2_22_ i_add1_22_] _487_ d_lut_AND2X2
AOAI21X1_38 [_486_ _487_ w_C_22_] _488_ d_lut_OAI21X1
ANAND2X1_61 [_488_ _492_] _359__22_ d_lut_NAND2X1
AINVX1_91 [w_C_23_] _496_ d_lut_INVX1
AOR2X2_27 [i_add2_23_ i_add1_23_] _497_ d_lut_OR2X2
ANAND2X1_62 [i_add2_23_ i_add1_23_] _498_ d_lut_NAND2X1
ANAND3X1_49 [_496_ _498_ _497_] _499_ d_lut_NAND3X1
ANOR2X1_48 [i_add2_23_ i_add1_23_] _493_ d_lut_NOR2X1
AAND2X2_34 [i_add2_23_ i_add1_23_] _494_ d_lut_AND2X2
AOAI21X1_39 [_493_ _494_ w_C_23_] _495_ d_lut_OAI21X1
ANAND2X1_63 [_495_ _499_] _359__23_ d_lut_NAND2X1
AINVX1_92 [w_C_24_] _503_ d_lut_INVX1
AOR2X2_28 [i_add2_24_ i_add1_24_] _504_ d_lut_OR2X2
ANAND2X1_64 [i_add2_24_ i_add1_24_] _505_ d_lut_NAND2X1
ANAND3X1_50 [_503_ _505_ _504_] _506_ d_lut_NAND3X1
ANOR2X1_49 [i_add2_24_ i_add1_24_] _500_ d_lut_NOR2X1
AAND2X2_35 [i_add2_24_ i_add1_24_] _501_ d_lut_AND2X2
AOAI21X1_40 [_500_ _501_ w_C_24_] _502_ d_lut_OAI21X1
ANAND2X1_65 [_502_ _506_] _359__24_ d_lut_NAND2X1
AINVX1_93 [w_C_25_] _510_ d_lut_INVX1
AOR2X2_29 [i_add2_25_ i_add1_25_] _511_ d_lut_OR2X2
ANAND2X1_66 [i_add2_25_ i_add1_25_] _512_ d_lut_NAND2X1
ANAND3X1_51 [_510_ _512_ _511_] _513_ d_lut_NAND3X1
ANOR2X1_50 [i_add2_25_ i_add1_25_] _507_ d_lut_NOR2X1
AAND2X2_36 [i_add2_25_ i_add1_25_] _508_ d_lut_AND2X2
AOAI21X1_41 [_507_ _508_ w_C_25_] _509_ d_lut_OAI21X1
ANAND2X1_67 [_509_ _513_] _359__25_ d_lut_NAND2X1
AINVX1_94 [w_C_26_] _517_ d_lut_INVX1
AOR2X2_30 [i_add2_26_ i_add1_26_] _518_ d_lut_OR2X2
ANAND2X1_68 [i_add2_26_ i_add1_26_] _519_ d_lut_NAND2X1
ANAND3X1_52 [_517_ _519_ _518_] _520_ d_lut_NAND3X1
ANOR2X1_51 [i_add2_26_ i_add1_26_] _514_ d_lut_NOR2X1
AAND2X2_37 [i_add2_26_ i_add1_26_] _515_ d_lut_AND2X2
AOAI21X1_42 [_514_ _515_ w_C_26_] _516_ d_lut_OAI21X1
ANAND2X1_69 [_516_ _520_] _359__26_ d_lut_NAND2X1
AINVX1_95 [w_C_27_] _524_ d_lut_INVX1
AOR2X2_31 [i_add2_27_ i_add1_27_] _525_ d_lut_OR2X2
ANAND2X1_70 [i_add2_27_ i_add1_27_] _526_ d_lut_NAND2X1
ANAND3X1_53 [_524_ _526_ _525_] _527_ d_lut_NAND3X1
ANOR2X1_52 [i_add2_27_ i_add1_27_] _521_ d_lut_NOR2X1
AAND2X2_38 [i_add2_27_ i_add1_27_] _522_ d_lut_AND2X2
AOAI21X1_43 [_521_ _522_ w_C_27_] _523_ d_lut_OAI21X1
ANAND2X1_71 [_523_ _527_] _359__27_ d_lut_NAND2X1
AINVX1_96 [w_C_28_] _531_ d_lut_INVX1
AOR2X2_32 [i_add2_28_ i_add1_28_] _532_ d_lut_OR2X2
ANAND2X1_72 [i_add2_28_ i_add1_28_] _533_ d_lut_NAND2X1
ANAND3X1_54 [_531_ _533_ _532_] _534_ d_lut_NAND3X1
ANOR2X1_53 [i_add2_28_ i_add1_28_] _528_ d_lut_NOR2X1
AAND2X2_39 [i_add2_28_ i_add1_28_] _529_ d_lut_AND2X2
AOAI21X1_44 [_528_ _529_ w_C_28_] _530_ d_lut_OAI21X1
ANAND2X1_73 [_530_ _534_] _359__28_ d_lut_NAND2X1
AINVX1_97 [w_C_29_] _538_ d_lut_INVX1
AOR2X2_33 [i_add2_29_ i_add1_29_] _539_ d_lut_OR2X2
ANAND2X1_74 [i_add2_29_ i_add1_29_] _540_ d_lut_NAND2X1
ANAND3X1_55 [_538_ _540_ _539_] _541_ d_lut_NAND3X1
ANOR2X1_54 [i_add2_29_ i_add1_29_] _535_ d_lut_NOR2X1
AAND2X2_40 [i_add2_29_ i_add1_29_] _536_ d_lut_AND2X2
AOAI21X1_45 [_535_ _536_ w_C_29_] _537_ d_lut_OAI21X1
ANAND2X1_75 [_537_ _541_] _359__29_ d_lut_NAND2X1
AINVX1_98 [w_C_30_] _545_ d_lut_INVX1
AOR2X2_34 [i_add2_30_ i_add1_30_] _546_ d_lut_OR2X2
ANAND2X1_76 [i_add2_30_ i_add1_30_] _547_ d_lut_NAND2X1
ANAND3X1_56 [_545_ _547_ _546_] _548_ d_lut_NAND3X1
ANOR2X1_55 [i_add2_30_ i_add1_30_] _542_ d_lut_NOR2X1
AAND2X2_41 [i_add2_30_ i_add1_30_] _543_ d_lut_AND2X2
AOAI21X1_46 [_542_ _543_ w_C_30_] _544_ d_lut_OAI21X1
ANAND2X1_77 [_544_ _548_] _359__30_ d_lut_NAND2X1
AINVX1_99 [w_C_31_] _552_ d_lut_INVX1
AOR2X2_35 [i_add2_31_ i_add1_31_] _553_ d_lut_OR2X2
ANAND2X1_78 [i_add2_31_ i_add1_31_] _554_ d_lut_NAND2X1
ANAND3X1_57 [_552_ _554_ _553_] _555_ d_lut_NAND3X1
ANOR2X1_56 [i_add2_31_ i_add1_31_] _549_ d_lut_NOR2X1
AAND2X2_42 [i_add2_31_ i_add1_31_] _550_ d_lut_AND2X2
AOAI21X1_47 [_549_ _550_ w_C_31_] _551_ d_lut_OAI21X1
ANAND2X1_79 [_551_ _555_] _359__31_ d_lut_NAND2X1
AINVX1_100 [w_C_32_] _559_ d_lut_INVX1
AOR2X2_36 [i_add2_32_ i_add1_32_] _560_ d_lut_OR2X2
ANAND2X1_80 [i_add2_32_ i_add1_32_] _561_ d_lut_NAND2X1
ANAND3X1_58 [_559_ _561_ _560_] _562_ d_lut_NAND3X1
ANOR2X1_57 [i_add2_32_ i_add1_32_] _556_ d_lut_NOR2X1
AAND2X2_43 [i_add2_32_ i_add1_32_] _557_ d_lut_AND2X2
AOAI21X1_48 [_556_ _557_ w_C_32_] _558_ d_lut_OAI21X1
ANAND2X1_81 [_558_ _562_] _359__32_ d_lut_NAND2X1
AINVX1_101 [w_C_33_] _566_ d_lut_INVX1
AOR2X2_37 [i_add2_33_ i_add1_33_] _567_ d_lut_OR2X2
ANAND2X1_82 [i_add2_33_ i_add1_33_] _568_ d_lut_NAND2X1
ANAND3X1_59 [_566_ _568_ _567_] _569_ d_lut_NAND3X1
ANOR2X1_58 [i_add2_33_ i_add1_33_] _563_ d_lut_NOR2X1
AAND2X2_44 [i_add2_33_ i_add1_33_] _564_ d_lut_AND2X2
AOAI21X1_49 [_563_ _564_ w_C_33_] _565_ d_lut_OAI21X1
ANAND2X1_83 [_565_ _569_] _359__33_ d_lut_NAND2X1
AINVX1_102 [w_C_34_] _573_ d_lut_INVX1
AOR2X2_38 [i_add2_34_ i_add1_34_] _574_ d_lut_OR2X2
ANAND2X1_84 [i_add2_34_ i_add1_34_] _575_ d_lut_NAND2X1
ANAND3X1_60 [_573_ _575_ _574_] _576_ d_lut_NAND3X1
ANOR2X1_59 [i_add2_34_ i_add1_34_] _570_ d_lut_NOR2X1
AAND2X2_45 [i_add2_34_ i_add1_34_] _571_ d_lut_AND2X2
AOAI21X1_50 [_570_ _571_ w_C_34_] _572_ d_lut_OAI21X1
ANAND2X1_85 [_572_ _576_] _359__34_ d_lut_NAND2X1
AINVX1_103 [w_C_35_] _580_ d_lut_INVX1
AOR2X2_39 [i_add2_35_ i_add1_35_] _581_ d_lut_OR2X2
ANAND2X1_86 [i_add2_35_ i_add1_35_] _582_ d_lut_NAND2X1
ANAND3X1_61 [_580_ _582_ _581_] _583_ d_lut_NAND3X1
ANOR2X1_60 [i_add2_35_ i_add1_35_] _577_ d_lut_NOR2X1
AAND2X2_46 [i_add2_35_ i_add1_35_] _578_ d_lut_AND2X2
AOAI21X1_51 [_577_ _578_ w_C_35_] _579_ d_lut_OAI21X1
ANAND2X1_87 [_579_ _583_] _359__35_ d_lut_NAND2X1
AINVX1_104 [w_C_36_] _587_ d_lut_INVX1
AOR2X2_40 [i_add2_36_ i_add1_36_] _588_ d_lut_OR2X2
ANAND2X1_88 [i_add2_36_ i_add1_36_] _589_ d_lut_NAND2X1
ANAND3X1_62 [_587_ _589_ _588_] _590_ d_lut_NAND3X1
ANOR2X1_61 [i_add2_36_ i_add1_36_] _584_ d_lut_NOR2X1
AAND2X2_47 [i_add2_36_ i_add1_36_] _585_ d_lut_AND2X2
AOAI21X1_52 [_584_ _585_ w_C_36_] _586_ d_lut_OAI21X1
ANAND2X1_89 [_586_ _590_] _359__36_ d_lut_NAND2X1
AINVX1_105 [w_C_37_] _594_ d_lut_INVX1
AOR2X2_41 [i_add2_37_ i_add1_37_] _595_ d_lut_OR2X2
ANAND2X1_90 [i_add2_37_ i_add1_37_] _596_ d_lut_NAND2X1
ANAND3X1_63 [_594_ _596_ _595_] _597_ d_lut_NAND3X1
ANOR2X1_62 [i_add2_37_ i_add1_37_] _591_ d_lut_NOR2X1
AAND2X2_48 [i_add2_37_ i_add1_37_] _592_ d_lut_AND2X2
AOAI21X1_53 [_591_ _592_ w_C_37_] _593_ d_lut_OAI21X1
ANAND2X1_91 [_593_ _597_] _359__37_ d_lut_NAND2X1
AINVX1_106 [w_C_38_] _601_ d_lut_INVX1
AOR2X2_42 [i_add2_38_ i_add1_38_] _602_ d_lut_OR2X2
ANAND2X1_92 [i_add2_38_ i_add1_38_] _603_ d_lut_NAND2X1
ANAND3X1_64 [_601_ _603_ _602_] _604_ d_lut_NAND3X1
ANOR2X1_63 [i_add2_38_ i_add1_38_] _598_ d_lut_NOR2X1
AAND2X2_49 [i_add2_38_ i_add1_38_] _599_ d_lut_AND2X2
AOAI21X1_54 [_598_ _599_ w_C_38_] _600_ d_lut_OAI21X1
ANAND2X1_93 [_600_ _604_] _359__38_ d_lut_NAND2X1
AINVX1_107 [w_C_39_] _608_ d_lut_INVX1
AOR2X2_43 [i_add2_39_ i_add1_39_] _609_ d_lut_OR2X2
ANAND2X1_94 [i_add2_39_ i_add1_39_] _610_ d_lut_NAND2X1
ANAND3X1_65 [_608_ _610_ _609_] _611_ d_lut_NAND3X1
ANOR2X1_64 [i_add2_39_ i_add1_39_] _605_ d_lut_NOR2X1
AAND2X2_50 [i_add2_39_ i_add1_39_] _606_ d_lut_AND2X2
AOAI21X1_55 [_605_ _606_ w_C_39_] _607_ d_lut_OAI21X1
ANAND2X1_95 [_607_ _611_] _359__39_ d_lut_NAND2X1
AINVX1_108 [w_C_40_] _615_ d_lut_INVX1
AOR2X2_44 [i_add2_40_ i_add1_40_] _616_ d_lut_OR2X2
ANAND2X1_96 [i_add2_40_ i_add1_40_] _617_ d_lut_NAND2X1
ANAND3X1_66 [_615_ _617_ _616_] _618_ d_lut_NAND3X1
ANOR2X1_65 [i_add2_40_ i_add1_40_] _612_ d_lut_NOR2X1
AAND2X2_51 [i_add2_40_ i_add1_40_] _613_ d_lut_AND2X2
AOAI21X1_56 [_612_ _613_ w_C_40_] _614_ d_lut_OAI21X1
ANAND2X1_97 [_614_ _618_] _359__40_ d_lut_NAND2X1
AINVX1_109 [w_C_41_] _622_ d_lut_INVX1
AOR2X2_45 [i_add2_41_ i_add1_41_] _623_ d_lut_OR2X2
ANAND2X1_98 [i_add2_41_ i_add1_41_] _624_ d_lut_NAND2X1
ANAND3X1_67 [_622_ _624_ _623_] _625_ d_lut_NAND3X1
ANOR2X1_66 [i_add2_41_ i_add1_41_] _619_ d_lut_NOR2X1
AAND2X2_52 [i_add2_41_ i_add1_41_] _620_ d_lut_AND2X2
AOAI21X1_57 [_619_ _620_ w_C_41_] _621_ d_lut_OAI21X1
ANAND2X1_99 [_621_ _625_] _359__41_ d_lut_NAND2X1
AINVX1_110 [w_C_42_] _629_ d_lut_INVX1
AOR2X2_46 [i_add2_42_ i_add1_42_] _630_ d_lut_OR2X2
ANAND2X1_100 [i_add2_42_ i_add1_42_] _631_ d_lut_NAND2X1
ANAND3X1_68 [_629_ _631_ _630_] _632_ d_lut_NAND3X1
ANOR2X1_67 [i_add2_42_ i_add1_42_] _626_ d_lut_NOR2X1
AAND2X2_53 [i_add2_42_ i_add1_42_] _627_ d_lut_AND2X2
AOAI21X1_58 [_626_ _627_ w_C_42_] _628_ d_lut_OAI21X1
ANAND2X1_101 [_628_ _632_] _359__42_ d_lut_NAND2X1