* XSpice netlist created from SPICE and liberty sources by spi2xspice.py
*SPICE netlist created from BLIF module cla_64bit by blif2BSpice
.subckt cla_64bit a_vdd a_gnd a_i_add1_0_ a_i_add1_1_ a_i_add1_2_ a_i_add1_3_ a_i_add1_4_ a_i_add1_5_ a_i_add1_6_ a_i_add1_7_ a_i_add1_8_ a_i_add1_9_ a_i_add1_10_ a_i_add1_11_ a_i_add1_12_ a_i_add1_13_ a_i_add1_14_ a_i_add1_15_ a_i_add1_16_ a_i_add1_17_ a_i_add1_18_ a_i_add1_19_ a_i_add1_20_ a_i_add1_21_ a_i_add1_22_ a_i_add1_23_ a_i_add1_24_ a_i_add1_25_ a_i_add1_26_ a_i_add1_27_ a_i_add1_28_ a_i_add1_29_ a_i_add1_30_ a_i_add1_31_ a_i_add1_32_ a_i_add1_33_ a_i_add1_34_ a_i_add1_35_ a_i_add1_36_ a_i_add1_37_ a_i_add1_38_ a_i_add1_39_ a_i_add1_40_ a_i_add1_41_ a_i_add1_42_ a_i_add1_43_ a_i_add1_44_ a_i_add1_45_ a_i_add1_46_ a_i_add1_47_ a_i_add1_48_ a_i_add1_49_ a_i_add1_50_ a_i_add1_51_ a_i_add1_52_ a_i_add1_53_ a_i_add1_54_ a_i_add1_55_ a_i_add1_56_ a_i_add1_57_ a_i_add1_58_ a_i_add1_59_ a_i_add1_60_ a_i_add1_61_ a_i_add1_62_ a_i_add1_63_ a_i_add2_0_ a_i_add2_1_ a_i_add2_2_ a_i_add2_3_ a_i_add2_4_ a_i_add2_5_ a_i_add2_6_ a_i_add2_7_ a_i_add2_8_ a_i_add2_9_ a_i_add2_10_ a_i_add2_11_ a_i_add2_12_ a_i_add2_13_ a_i_add2_14_ a_i_add2_15_ a_i_add2_16_ a_i_add2_17_ a_i_add2_18_ a_i_add2_19_ a_i_add2_20_ a_i_add2_21_ a_i_add2_22_ a_i_add2_23_ a_i_add2_24_ a_i_add2_25_ a_i_add2_26_ a_i_add2_27_ a_i_add2_28_ a_i_add2_29_ a_i_add2_30_ a_i_add2_31_ a_i_add2_32_ a_i_add2_33_ a_i_add2_34_ a_i_add2_35_ a_i_add2_36_ a_i_add2_37_ a_i_add2_38_ a_i_add2_39_ a_i_add2_40_ a_i_add2_41_ a_i_add2_42_ a_i_add2_43_ a_i_add2_44_ a_i_add2_45_ a_i_add2_46_ a_i_add2_47_ a_i_add2_48_ a_i_add2_49_ a_i_add2_50_ a_i_add2_51_ a_i_add2_52_ a_i_add2_53_ a_i_add2_54_ a_i_add2_55_ a_i_add2_56_ a_i_add2_57_ a_i_add2_58_ a_i_add2_59_ a_i_add2_60_ a_i_add2_61_ a_i_add2_62_ a_i_add2_63_ a_o_result_0_ a_o_result_1_ a_o_result_2_ a_o_result_3_ a_o_result_4_ a_o_result_5_ a_o_result_6_ a_o_result_7_ a_o_result_8_ a_o_result_9_ a_o_result_10_ a_o_result_11_ a_o_result_12_ a_o_result_13_ a_o_result_14_ a_o_result_15_ a_o_result_16_ a_o_result_17_ a_o_result_18_ a_o_result_19_ a_o_result_20_ a_o_result_21_ a_o_result_22_ a_o_result_23_ a_o_result_24_ a_o_result_25_ a_o_result_26_ a_o_result_27_ a_o_result_28_ a_o_result_29_ a_o_result_30_ a_o_result_31_ a_o_result_32_ a_o_result_33_ a_o_result_34_ a_o_result_35_ a_o_result_36_ a_o_result_37_ a_o_result_38_ a_o_result_39_ a_o_result_40_ a_o_result_41_ a_o_result_42_ a_o_result_43_ a_o_result_44_ a_o_result_45_ a_o_result_46_ a_o_result_47_ a_o_result_48_ a_o_result_49_ a_o_result_50_ a_o_result_51_ a_o_result_52_ a_o_result_53_ a_o_result_54_ a_o_result_55_ a_o_result_56_ a_o_result_57_ a_o_result_58_ a_o_result_59_ a_o_result_60_ a_o_result_61_ a_o_result_62_ a_o_result_63_ a_o_result_64_
ANAND3X1_1 [_139_ _147_ _144_] _148_ d_lut_NAND3X1
AOAI21X1_1 [i_add2_24_ i_add1_24_ _148_] _149_ d_lut_OAI21X1
AINVX1_1 [_149_] w_C_25_ d_lut_INVX1
AINVX1_2 [i_add2_25_] _150_ d_lut_INVX1
AINVX1_3 [i_add1_25_] _151_ d_lut_INVX1
ANOR2X1_1 [_150_ _151_] _152_ d_lut_NOR2X1
AINVX1_4 [_152_] _153_ d_lut_INVX1
ANOR2X1_2 [i_add2_24_ i_add1_24_] _154_ d_lut_NOR2X1
AINVX1_5 [_154_] _155_ d_lut_INVX1
ANOR2X1_3 [i_add2_25_ i_add1_25_] _156_ d_lut_NOR2X1
AINVX1_6 [_156_] _157_ d_lut_INVX1
ANAND3X1_2 [_155_ _157_ _148_] _158_ d_lut_NAND3X1
AAND2X2_1 [_158_ _153_] _159_ d_lut_AND2X2
AINVX1_7 [_159_] w_C_26_ d_lut_INVX1
AAND2X2_2 [i_add2_26_ i_add1_26_] _160_ d_lut_AND2X2
AINVX1_8 [_160_] _161_ d_lut_INVX1
ANAND3X1_3 [_153_ _161_ _158_] _162_ d_lut_NAND3X1
AOAI21X1_2 [i_add2_26_ i_add1_26_ _162_] _163_ d_lut_OAI21X1
AINVX1_9 [_163_] w_C_27_ d_lut_INVX1
AINVX1_10 [i_add2_27_] _164_ d_lut_INVX1
AINVX1_11 [i_add1_27_] _165_ d_lut_INVX1
ANOR2X1_4 [_164_ _165_] _166_ d_lut_NOR2X1
AINVX1_12 [_166_] _167_ d_lut_INVX1
ANOR2X1_5 [i_add2_26_ i_add1_26_] _168_ d_lut_NOR2X1
AINVX1_13 [_168_] _169_ d_lut_INVX1
ANOR2X1_6 [i_add2_27_ i_add1_27_] _170_ d_lut_NOR2X1
AINVX1_14 [_170_] _171_ d_lut_INVX1
ANAND3X1_4 [_169_ _171_ _162_] _172_ d_lut_NAND3X1
AAND2X2_3 [_172_ _167_] _173_ d_lut_AND2X2
AINVX1_15 [_173_] w_C_28_ d_lut_INVX1
AAND2X2_4 [i_add2_28_ i_add1_28_] _174_ d_lut_AND2X2
AINVX1_16 [_174_] _175_ d_lut_INVX1
ANAND3X1_5 [_167_ _175_ _172_] _176_ d_lut_NAND3X1
AOAI21X1_3 [i_add2_28_ i_add1_28_ _176_] _177_ d_lut_OAI21X1
AINVX1_17 [_177_] w_C_29_ d_lut_INVX1
AINVX1_18 [i_add2_29_] _178_ d_lut_INVX1
AINVX1_19 [i_add1_29_] _179_ d_lut_INVX1
ANOR2X1_7 [_178_ _179_] _180_ d_lut_NOR2X1
AINVX1_20 [_180_] _181_ d_lut_INVX1
ANOR2X1_8 [i_add2_28_ i_add1_28_] _182_ d_lut_NOR2X1
AINVX1_21 [_182_] _183_ d_lut_INVX1
ANOR2X1_9 [i_add2_29_ i_add1_29_] _184_ d_lut_NOR2X1
AINVX1_22 [_184_] _185_ d_lut_INVX1
ANAND3X1_6 [_183_ _185_ _176_] _186_ d_lut_NAND3X1
AAND2X2_5 [_186_ _181_] _187_ d_lut_AND2X2
AINVX1_23 [_187_] w_C_30_ d_lut_INVX1
AAND2X2_6 [i_add2_30_ i_add1_30_] _188_ d_lut_AND2X2
AINVX1_24 [_188_] _189_ d_lut_INVX1
ANAND3X1_7 [_181_ _189_ _186_] _190_ d_lut_NAND3X1
AOAI21X1_4 [i_add2_30_ i_add1_30_ _190_] _191_ d_lut_OAI21X1
AINVX1_25 [_191_] w_C_31_ d_lut_INVX1
AINVX1_26 [i_add2_31_] _192_ d_lut_INVX1
AINVX1_27 [i_add1_31_] _193_ d_lut_INVX1
ANOR2X1_10 [_192_ _193_] _194_ d_lut_NOR2X1
AINVX1_28 [_194_] _195_ d_lut_INVX1
ANOR2X1_11 [i_add2_30_ i_add1_30_] _196_ d_lut_NOR2X1
AINVX1_29 [_196_] _197_ d_lut_INVX1
ANOR2X1_12 [i_add2_31_ i_add1_31_] _198_ d_lut_NOR2X1
AINVX1_30 [_198_] _199_ d_lut_INVX1
ANAND3X1_8 [_197_ _199_ _190_] _200_ d_lut_NAND3X1
AAND2X2_7 [_200_ _195_] _201_ d_lut_AND2X2
AINVX1_31 [_201_] w_C_32_ d_lut_INVX1
AAND2X2_8 [i_add2_32_ i_add1_32_] _202_ d_lut_AND2X2
AINVX1_32 [_202_] _203_ d_lut_INVX1
ANAND3X1_9 [_195_ _203_ _200_] _204_ d_lut_NAND3X1
AOAI21X1_5 [i_add2_32_ i_add1_32_ _204_] _205_ d_lut_OAI21X1
AINVX1_33 [_205_] w_C_33_ d_lut_INVX1
AINVX1_34 [i_add2_33_] _206_ d_lut_INVX1
AINVX1_35 [i_add1_33_] _207_ d_lut_INVX1
ANOR2X1_13 [_206_ _207_] _208_ d_lut_NOR2X1
AINVX1_36 [_208_] _209_ d_lut_INVX1
ANOR2X1_14 [i_add2_32_ i_add1_32_] _210_ d_lut_NOR2X1
AINVX1_37 [_210_] _211_ d_lut_INVX1
ANOR2X1_15 [i_add2_33_ i_add1_33_] _212_ d_lut_NOR2X1
AINVX1_38 [_212_] _213_ d_lut_INVX1
ANAND3X1_10 [_211_ _213_ _204_] _214_ d_lut_NAND3X1
AAND2X2_9 [_214_ _209_] _215_ d_lut_AND2X2
AINVX1_39 [_215_] w_C_34_ d_lut_INVX1
AAND2X2_10 [i_add2_34_ i_add1_34_] _216_ d_lut_AND2X2
AINVX1_40 [_216_] _217_ d_lut_INVX1
ANAND3X1_11 [_209_ _217_ _214_] _218_ d_lut_NAND3X1
AOAI21X1_6 [i_add2_34_ i_add1_34_ _218_] _219_ d_lut_OAI21X1
AINVX1_41 [_219_] w_C_35_ d_lut_INVX1
AINVX1_42 [i_add2_35_] _220_ d_lut_INVX1
AINVX1_43 [i_add1_35_] _221_ d_lut_INVX1
ANOR2X1_16 [_220_ _221_] _222_ d_lut_NOR2X1
AINVX1_44 [_222_] _223_ d_lut_INVX1
ANOR2X1_17 [i_add2_34_ i_add1_34_] _224_ d_lut_NOR2X1
AINVX1_45 [_224_] _225_ d_lut_INVX1
ANOR2X1_18 [i_add2_35_ i_add1_35_] _226_ d_lut_NOR2X1
AINVX1_46 [_226_] _227_ d_lut_INVX1
ANAND3X1_12 [_225_ _227_ _218_] _228_ d_lut_NAND3X1
AAND2X2_11 [_228_ _223_] _229_ d_lut_AND2X2
AINVX1_47 [_229_] w_C_36_ d_lut_INVX1
AAND2X2_12 [i_add2_36_ i_add1_36_] _230_ d_lut_AND2X2
AINVX1_48 [_230_] _231_ d_lut_INVX1
ANAND3X1_13 [_223_ _231_ _228_] _232_ d_lut_NAND3X1
AOAI21X1_7 [i_add2_36_ i_add1_36_ _232_] _233_ d_lut_OAI21X1
AINVX1_49 [_233_] w_C_37_ d_lut_INVX1
AINVX1_50 [i_add2_37_] _234_ d_lut_INVX1
AINVX1_51 [i_add1_37_] _235_ d_lut_INVX1
ANOR2X1_19 [_234_ _235_] _236_ d_lut_NOR2X1
AINVX1_52 [_236_] _237_ d_lut_INVX1
ANOR2X1_20 [i_add2_36_ i_add1_36_] _238_ d_lut_NOR2X1
AINVX1_53 [_238_] _239_ d_lut_INVX1
ANOR2X1_21 [i_add2_37_ i_add1_37_] _240_ d_lut_NOR2X1
AINVX1_54 [_240_] _241_ d_lut_INVX1
ANAND3X1_14 [_239_ _241_ _232_] _242_ d_lut_NAND3X1
AAND2X2_13 [_242_ _237_] _243_ d_lut_AND2X2
AINVX1_55 [_243_] w_C_38_ d_lut_INVX1
AAND2X2_14 [i_add2_38_ i_add1_38_] _244_ d_lut_AND2X2
AINVX1_56 [_244_] _245_ d_lut_INVX1
ANAND3X1_15 [_237_ _245_ _242_] _246_ d_lut_NAND3X1
AOAI21X1_8 [i_add2_38_ i_add1_38_ _246_] _247_ d_lut_OAI21X1
AINVX1_57 [_247_] w_C_39_ d_lut_INVX1
AINVX1_58 [i_add2_39_] _248_ d_lut_INVX1
AINVX1_59 [i_add1_39_] _249_ d_lut_INVX1
ANOR2X1_22 [_248_ _249_] _250_ d_lut_NOR2X1
AINVX1_60 [_250_] _251_ d_lut_INVX1
ANOR2X1_23 [i_add2_38_ i_add1_38_] _252_ d_lut_NOR2X1
AINVX1_61 [_252_] _253_ d_lut_INVX1
ANOR2X1_24 [i_add2_39_ i_add1_39_] _254_ d_lut_NOR2X1
AINVX1_62 [_254_] _255_ d_lut_INVX1
ANAND3X1_16 [_253_ _255_ _246_] _256_ d_lut_NAND3X1
AAND2X2_15 [_256_ _251_] _257_ d_lut_AND2X2
AINVX1_63 [_257_] w_C_40_ d_lut_INVX1
AAND2X2_16 [i_add2_40_ i_add1_40_] _258_ d_lut_AND2X2
AINVX1_64 [_258_] _259_ d_lut_INVX1
ANAND3X1_17 [_251_ _259_ _256_] _260_ d_lut_NAND3X1
AOAI21X1_9 [i_add2_40_ i_add1_40_ _260_] _261_ d_lut_OAI21X1
AINVX1_65 [_261_] w_C_41_ d_lut_INVX1
AINVX1_66 [i_add2_41_] _262_ d_lut_INVX1
AINVX1_67 [i_add1_41_] _263_ d_lut_INVX1
ANOR2X1_25 [_262_ _263_] _264_ d_lut_NOR2X1
AINVX1_68 [_264_] _265_ d_lut_INVX1
ANOR2X1_26 [i_add2_40_ i_add1_40_] _266_ d_lut_NOR2X1
AINVX1_69 [_266_] _267_ d_lut_INVX1
ANOR2X1_27 [i_add2_41_ i_add1_41_] _268_ d_lut_NOR2X1
AINVX1_70 [_268_] _269_ d_lut_INVX1
ANAND3X1_18 [_267_ _269_ _260_] _270_ d_lut_NAND3X1
AAND2X2_17 [_270_ _265_] _271_ d_lut_AND2X2
AINVX1_71 [_271_] w_C_42_ d_lut_INVX1
AAND2X2_18 [i_add2_42_ i_add1_42_] _272_ d_lut_AND2X2
AINVX1_72 [_272_] _273_ d_lut_INVX1
ANAND3X1_19 [_265_ _273_ _270_] _274_ d_lut_NAND3X1
AOAI21X1_10 [i_add2_42_ i_add1_42_ _274_] _275_ d_lut_OAI21X1
AINVX1_73 [_275_] w_C_43_ d_lut_INVX1
AINVX1_74 [i_add2_43_] _276_ d_lut_INVX1
AINVX1_75 [i_add1_43_] _277_ d_lut_INVX1
ANOR2X1_28 [_276_ _277_] _278_ d_lut_NOR2X1
AINVX1_76 [_278_] _279_ d_lut_INVX1
ANOR2X1_29 [i_add2_42_ i_add1_42_] _280_ d_lut_NOR2X1
AINVX1_77 [_280_] _281_ d_lut_INVX1
ANOR2X1_30 [i_add2_43_ i_add1_43_] _282_ d_lut_NOR2X1
AINVX1_78 [_282_] _283_ d_lut_INVX1
ANAND3X1_20 [_281_ _283_ _274_] _284_ d_lut_NAND3X1
AAND2X2_19 [_284_ _279_] _285_ d_lut_AND2X2
AINVX1_79 [_285_] w_C_44_ d_lut_INVX1
AAND2X2_20 [i_add2_44_ i_add1_44_] _286_ d_lut_AND2X2
AINVX1_80 [_286_] _287_ d_lut_INVX1
ANAND3X1_21 [_279_ _287_ _284_] _288_ d_lut_NAND3X1
AOAI21X1_11 [i_add2_44_ i_add1_44_ _288_] _289_ d_lut_OAI21X1
AINVX1_81 [_289_] w_C_45_ d_lut_INVX1
AINVX1_82 [i_add2_45_] _290_ d_lut_INVX1
AINVX1_83 [i_add1_45_] _291_ d_lut_INVX1
ANOR2X1_31 [_290_ _291_] _292_ d_lut_NOR2X1
AINVX1_84 [_292_] _293_ d_lut_INVX1
ANOR2X1_32 [i_add2_44_ i_add1_44_] _294_ d_lut_NOR2X1
AINVX1_85 [_294_] _295_ d_lut_INVX1
ANOR2X1_33 [i_add2_45_ i_add1_45_] _296_ d_lut_NOR2X1
AINVX1_86 [_296_] _297_ d_lut_INVX1
ANAND3X1_22 [_295_ _297_ _288_] _298_ d_lut_NAND3X1
AAND2X2_21 [_298_ _293_] _299_ d_lut_AND2X2
AINVX1_87 [_299_] w_C_46_ d_lut_INVX1
AAND2X2_22 [i_add2_46_ i_add1_46_] _300_ d_lut_AND2X2
AINVX1_88 [_300_] _301_ d_lut_INVX1
ANAND3X1_23 [_293_ _301_ _298_] _302_ d_lut_NAND3X1
AOAI21X1_12 [i_add2_46_ i_add1_46_ _302_] _303_ d_lut_OAI21X1
AINVX1_89 [_303_] w_C_47_ d_lut_INVX1
AINVX1_90 [i_add2_47_] _304_ d_lut_INVX1
AINVX1_91 [i_add1_47_] _305_ d_lut_INVX1
ANOR2X1_34 [_304_ _305_] _306_ d_lut_NOR2X1
AINVX1_92 [_306_] _307_ d_lut_INVX1
ANOR2X1_35 [i_add2_46_ i_add1_46_] _308_ d_lut_NOR2X1
AINVX1_93 [_308_] _309_ d_lut_INVX1
ANOR2X1_36 [i_add2_47_ i_add1_47_] _310_ d_lut_NOR2X1
AINVX1_94 [_310_] _311_ d_lut_INVX1
ANAND3X1_24 [_309_ _311_ _302_] _312_ d_lut_NAND3X1
AAND2X2_23 [_312_ _307_] _313_ d_lut_AND2X2
AINVX1_95 [_313_] w_C_48_ d_lut_INVX1
AAND2X2_24 [i_add2_48_ i_add1_48_] _314_ d_lut_AND2X2
AINVX1_96 [_314_] _315_ d_lut_INVX1
ANAND3X1_25 [_307_ _315_ _312_] _316_ d_lut_NAND3X1
AOAI21X1_13 [i_add2_48_ i_add1_48_ _316_] _317_ d_lut_OAI21X1
AINVX1_97 [_317_] w_C_49_ d_lut_INVX1
AINVX1_98 [i_add2_49_] _318_ d_lut_INVX1
AINVX1_99 [i_add1_49_] _319_ d_lut_INVX1
ANOR2X1_37 [_318_ _319_] _320_ d_lut_NOR2X1
AINVX1_100 [_320_] _321_ d_lut_INVX1
ANOR2X1_38 [i_add2_48_ i_add1_48_] _322_ d_lut_NOR2X1
AINVX1_101 [_322_] _323_ d_lut_INVX1
ANOR2X1_39 [i_add2_49_ i_add1_49_] _324_ d_lut_NOR2X1
AINVX1_102 [_324_] _325_ d_lut_INVX1
ANAND3X1_26 [_323_ _325_ _316_] _326_ d_lut_NAND3X1
AAND2X2_25 [_326_ _321_] _327_ d_lut_AND2X2
AINVX1_103 [_327_] w_C_50_ d_lut_INVX1
AAND2X2_26 [i_add2_50_ i_add1_50_] _328_ d_lut_AND2X2
AINVX1_104 [_328_] _329_ d_lut_INVX1
ANAND3X1_27 [_321_ _329_ _326_] _330_ d_lut_NAND3X1
AOAI21X1_14 [i_add2_50_ i_add1_50_ _330_] _331_ d_lut_OAI21X1
AINVX1_105 [_331_] w_C_51_ d_lut_INVX1
ANAND2X1_1 [i_add2_51_ i_add1_51_] _332_ d_lut_NAND2X1
ANOR2X1_40 [i_add2_51_ i_add1_51_] _333_ d_lut_NOR2X1
AOAI21X1_15 [_333_ _331_ _332_] w_C_52_ d_lut_OAI21X1
AOR2X2_1 [i_add2_52_ i_add1_52_] _334_ d_lut_OR2X2
ANOR2X1_41 [i_add2_50_ i_add1_50_] _335_ d_lut_NOR2X1
AINVX1_106 [_335_] _336_ d_lut_INVX1
AINVX1_107 [_333_] _337_ d_lut_INVX1
ANAND3X1_28 [_336_ _337_ _330_] _338_ d_lut_NAND3X1
ANAND2X1_2 [i_add2_52_ i_add1_52_] _339_ d_lut_NAND2X1
ANAND3X1_29 [_332_ _339_ _338_] _340_ d_lut_NAND3X1
AAND2X2_27 [_340_ _334_] w_C_53_ d_lut_AND2X2
AINVX1_108 [i_add2_53_] _341_ d_lut_INVX1
AINVX1_109 [i_add1_53_] _342_ d_lut_INVX1
ANAND2X1_3 [_341_ _342_] _343_ d_lut_NAND2X1
ANAND3X1_30 [_334_ _343_ _340_] _344_ d_lut_NAND3X1
AOAI21X1_16 [_341_ _342_ _344_] w_C_54_ d_lut_OAI21X1
AINVX1_110 [i_add2_54_] _345_ d_lut_INVX1
AINVX1_111 [i_add1_54_] _346_ d_lut_INVX1
ANAND2X1_4 [_345_ _346_] _347_ d_lut_NAND2X1
ANAND2X1_5 [i_add2_53_ i_add1_53_] _348_ d_lut_NAND2X1
ANAND2X1_6 [i_add2_54_ i_add1_54_] _349_ d_lut_NAND2X1
ANAND3X1_31 [_348_ _349_ _344_] _350_ d_lut_NAND3X1
AAND2X2_28 [_350_ _347_] w_C_55_ d_lut_AND2X2
AINVX1_112 [i_add2_55_] _351_ d_lut_INVX1
AINVX1_113 [i_add1_55_] _352_ d_lut_INVX1
ANAND2X1_7 [_351_ _352_] _353_ d_lut_NAND2X1
ANAND3X1_32 [_347_ _353_ _350_] _354_ d_lut_NAND3X1
AOAI21X1_17 [_351_ _352_ _354_] w_C_56_ d_lut_OAI21X1
ANOR2X1_42 [i_add2_56_ i_add1_56_] _355_ d_lut_NOR2X1
AINVX1_114 [_355_] _356_ d_lut_INVX1
ANOR2X1_43 [_351_ _352_] _357_ d_lut_NOR2X1
AINVX1_115 [_357_] _358_ d_lut_INVX1
AINVX1_116 [i_add2_56_] _359_ d_lut_INVX1
AINVX1_117 [i_add1_56_] _360_ d_lut_INVX1
ANOR2X1_44 [_359_ _360_] _361_ d_lut_NOR2X1
AINVX1_118 [_361_] _362_ d_lut_INVX1
ANAND3X1_33 [_358_ _362_ _354_] _363_ d_lut_NAND3X1
AAND2X2_29 [_363_ _356_] w_C_57_ d_lut_AND2X2
AINVX1_119 [i_add2_57_] _364_ d_lut_INVX1
AINVX1_120 [i_add1_57_] _365_ d_lut_INVX1
ANOR2X1_45 [i_add2_57_ i_add1_57_] _366_ d_lut_NOR2X1
AINVX1_121 [_366_] _367_ d_lut_INVX1
ANAND3X1_34 [_356_ _367_ _363_] _368_ d_lut_NAND3X1
AOAI21X1_18 [_364_ _365_ _368_] w_C_58_ d_lut_OAI21X1
AINVX1_122 [i_add2_58_] _369_ d_lut_INVX1
AINVX1_123 [i_add1_58_] _370_ d_lut_INVX1
AOAI21X1_19 [i_add2_58_ i_add1_58_ w_C_58_] _371_ d_lut_OAI21X1
AOAI21X1_20 [_369_ _370_ _371_] w_C_59_ d_lut_OAI21X1
ANOR2X1_46 [_369_ _370_] _372_ d_lut_NOR2X1
AINVX1_124 [_372_] _373_ d_lut_INVX1
AAND2X2_30 [i_add2_59_ i_add1_59_] _374_ d_lut_AND2X2
AINVX1_125 [_374_] _375_ d_lut_INVX1
ANAND3X1_35 [_373_ _375_ _371_] _376_ d_lut_NAND3X1
AOAI21X1_21 [i_add2_59_ i_add1_59_ _376_] _377_ d_lut_OAI21X1
AINVX1_126 [_377_] w_C_60_ d_lut_INVX1
ANAND2X1_8 [i_add2_60_ i_add1_60_] _378_ d_lut_NAND2X1
ANOR2X1_47 [i_add2_60_ i_add1_60_] _379_ d_lut_NOR2X1
AOAI21X1_22 [_379_ _377_ _378_] w_C_61_ d_lut_OAI21X1
ANAND2X1_9 [i_add2_61_ i_add1_61_] _380_ d_lut_NAND2X1
AINVX1_127 [_379_] _381_ d_lut_INVX1
ANOR2X1_48 [i_add2_58_ i_add1_58_] _382_ d_lut_NOR2X1
AINVX1_128 [_382_] _383_ d_lut_INVX1
ANOR2X1_49 [_364_ _365_] _384_ d_lut_NOR2X1
AINVX1_129 [_384_] _385_ d_lut_INVX1
ANAND3X1_36 [_385_ _373_ _368_] _386_ d_lut_NAND3X1
ANOR2X1_50 [i_add2_59_ i_add1_59_] _387_ d_lut_NOR2X1
AINVX1_130 [_387_] _388_ d_lut_INVX1
ANAND3X1_37 [_383_ _388_ _386_] _389_ d_lut_NAND3X1
ANAND3X1_38 [_375_ _378_ _389_] _390_ d_lut_NAND3X1
AOR2X2_2 [i_add2_61_ i_add1_61_] _391_ d_lut_OR2X2
ANAND3X1_39 [_381_ _391_ _390_] _392_ d_lut_NAND3X1
ANAND2X1_10 [_380_ _392_] w_C_62_ d_lut_NAND2X1
AOR2X2_3 [i_add2_62_ i_add1_62_] _393_ d_lut_OR2X2
ANAND2X1_11 [i_add2_62_ i_add1_62_] _394_ d_lut_NAND2X1
ANAND3X1_40 [_380_ _394_ _392_] _395_ d_lut_NAND3X1
AAND2X2_31 [_395_ _393_] w_C_63_ d_lut_AND2X2
ANAND2X1_12 [i_add2_63_ i_add1_63_] _396_ d_lut_NAND2X1
AOR2X2_4 [i_add2_63_ i_add1_63_] _397_ d_lut_OR2X2
ANAND3X1_41 [_393_ _397_ _395_] _398_ d_lut_NAND3X1
ANAND2X1_13 [_396_ _398_] w_C_64_ d_lut_NAND2X1
ANAND2X1_14 [i_add2_0_ i_add1_0_] _0_ d_lut_NAND2X1
AINVX1_131 [_0_] w_C_1_ d_lut_INVX1
ANOR2X1_51 [i_add2_1_ i_add1_1_] _1_ d_lut_NOR2X1
AAOI22X1_1 [i_add2_0_ i_add1_0_ i_add2_1_ i_add1_1_] _2_ d_lut_AOI22X1
ANOR2X1_52 [_1_ _2_] w_C_2_ d_lut_NOR2X1
AINVX1_132 [i_add2_2_] _3_ d_lut_INVX1
AINVX1_133 [i_add1_2_] _4_ d_lut_INVX1
ANAND2X1_15 [_3_ _4_] _5_ d_lut_NAND2X1
ANAND2X1_16 [i_add2_2_ i_add1_2_] _6_ d_lut_NAND2X1
AOAI21X1_23 [_1_ _2_ _6_] _7_ d_lut_OAI21X1
AAND2X2_32 [_7_ _5_] w_C_3_ d_lut_AND2X2
ANAND2X1_17 [i_add2_3_ i_add1_3_] _8_ d_lut_NAND2X1
AOR2X2_5 [i_add2_3_ i_add1_3_] _9_ d_lut_OR2X2
ANAND3X1_42 [_5_ _9_ _7_] _10_ d_lut_NAND3X1
ANAND2X1_18 [_8_ _10_] w_C_4_ d_lut_NAND2X1
ANAND2X1_19 [i_add2_4_ i_add1_4_] _11_ d_lut_NAND2X1
ANAND3X1_43 [_8_ _11_ _10_] _12_ d_lut_NAND3X1
AOAI21X1_24 [i_add2_4_ i_add1_4_ _12_] _13_ d_lut_OAI21X1
AINVX1_134 [_13_] w_C_5_ d_lut_INVX1
AINVX1_135 [i_add2_5_] _14_ d_lut_INVX1
ABUFX2_1 [_399__0_] o_result_0_ d_lut_BUFX2
ABUFX2_2 [_399__1_] o_result_1_ d_lut_BUFX2
ABUFX2_3 [_399__2_] o_result_2_ d_lut_BUFX2
ABUFX2_4 [_399__3_] o_result_3_ d_lut_BUFX2
ABUFX2_5 [_399__4_] o_result_4_ d_lut_BUFX2
ABUFX2_6 [_399__5_] o_result_5_ d_lut_BUFX2
ABUFX2_7 [_399__6_] o_result_6_ d_lut_BUFX2
ABUFX2_8 [_399__7_] o_result_7_ d_lut_BUFX2
ABUFX2_9 [_399__8_] o_result_8_ d_lut_BUFX2
ABUFX2_10 [_399__9_] o_result_9_ d_lut_BUFX2
ABUFX2_11 [_399__10_] o_result_10_ d_lut_BUFX2
ABUFX2_12 [_399__11_] o_result_11_ d_lut_BUFX2
ABUFX2_13 [_399__12_] o_result_12_ d_lut_BUFX2
ABUFX2_14 [_399__13_] o_result_13_ d_lut_BUFX2
ABUFX2_15 [_399__14_] o_result_14_ d_lut_BUFX2
ABUFX2_16 [_399__15_] o_result_15_ d_lut_BUFX2
ABUFX2_17 [_399__16_] o_result_16_ d_lut_BUFX2
ABUFX2_18 [_399__17_] o_result_17_ d_lut_BUFX2
ABUFX2_19 [_399__18_] o_result_18_ d_lut_BUFX2
ABUFX2_20 [_399__19_] o_result_19_ d_lut_BUFX2
ABUFX2_21 [_399__20_] o_result_20_ d_lut_BUFX2
ABUFX2_22 [_399__21_] o_result_21_ d_lut_BUFX2
ABUFX2_23 [_399__22_] o_result_22_ d_lut_BUFX2
ABUFX2_24 [_399__23_] o_result_23_ d_lut_BUFX2
ABUFX2_25 [_399__24_] o_result_24_ d_lut_BUFX2
ABUFX2_26 [_399__25_] o_result_25_ d_lut_BUFX2
ABUFX2_27 [_399__26_] o_result_26_ d_lut_BUFX2
ABUFX2_28 [_399__27_] o_result_27_ d_lut_BUFX2
ABUFX2_29 [_399__28_] o_result_28_ d_lut_BUFX2
ABUFX2_30 [_399__29_] o_result_29_ d_lut_BUFX2
ABUFX2_31 [_399__30_] o_result_30_ d_lut_BUFX2
ABUFX2_32 [_399__31_] o_result_31_ d_lut_BUFX2
ABUFX2_33 [_399__32_] o_result_32_ d_lut_BUFX2
ABUFX2_34 [_399__33_] o_result_33_ d_lut_BUFX2
ABUFX2_35 [_399__34_] o_result_34_ d_lut_BUFX2
ABUFX2_36 [_399__35_] o_result_35_ d_lut_BUFX2
ABUFX2_37 [_399__36_] o_result_36_ d_lut_BUFX2
ABUFX2_38 [_399__37_] o_result_37_ d_lut_BUFX2
ABUFX2_39 [_399__38_] o_result_38_ d_lut_BUFX2
ABUFX2_40 [_399__39_] o_result_39_ d_lut_BUFX2
ABUFX2_41 [_399__40_] o_result_40_ d_lut_BUFX2
ABUFX2_42 [_399__41_] o_result_41_ d_lut_BUFX2
ABUFX2_43 [_399__42_] o_result_42_ d_lut_BUFX2
ABUFX2_44 [_399__43_] o_result_43_ d_lut_BUFX2
ABUFX2_45 [_399__44_] o_result_44_ d_lut_BUFX2
ABUFX2_46 [_399__45_] o_result_45_ d_lut_BUFX2
ABUFX2_47 [_399__46_] o_result_46_ d_lut_BUFX2
ABUFX2_48 [_399__47_] o_result_47_ d_lut_BUFX2
ABUFX2_49 [_399__48_] o_result_48_ d_lut_BUFX2
ABUFX2_50 [_399__49_] o_result_49_ d_lut_BUFX2
ABUFX2_51 [_399__50_] o_result_50_ d_lut_BUFX2
ABUFX2_52 [_399__51_] o_result_51_ d_lut_BUFX2
ABUFX2_53 [_399__52_] o_result_52_ d_lut_BUFX2
ABUFX2_54 [_399__53_] o_result_53_ d_lut_BUFX2
ABUFX2_55 [_399__54_] o_result_54_ d_lut_BUFX2
ABUFX2_56 [_399__55_] o_result_55_ d_lut_BUFX2
ABUFX2_57 [_399__56_] o_result_56_ d_lut_BUFX2
ABUFX2_58 [_399__57_] o_result_57_ d_lut_BUFX2
ABUFX2_59 [_399__58_] o_result_58_ d_lut_BUFX2
ABUFX2_60 [_399__59_] o_result_59_ d_lut_BUFX2
ABUFX2_61 [_399__60_] o_result_60_ d_lut_BUFX2
ABUFX2_62 [_399__61_] o_result_61_ d_lut_BUFX2
ABUFX2_63 [_399__62_] o_result_62_ d_lut_BUFX2
ABUFX2_64 [_399__63_] o_result_63_ d_lut_BUFX2
ABUFX2_65 [w_C_64_] o_result_64_ d_lut_BUFX2
AINVX1_136 [w_C_4_] _403_ d_lut_INVX1
AOR2X2_6 [i_add2_4_ i_add1_4_] _404_ d_lut_OR2X2
ANAND2X1_20 [i_add2_4_ i_add1_4_] _405_ d_lut_NAND2X1
ANAND3X1_44 [_403_ _405_ _404_] _406_ d_lut_NAND3X1
ANOR2X1_53 [i_add2_4_ i_add1_4_] _400_ d_lut_NOR2X1
AAND2X2_33 [i_add2_4_ i_add1_4_] _401_ d_lut_AND2X2
AOAI21X1_25 [_400_ _401_ w_C_4_] _402_ d_lut_OAI21X1
ANAND2X1_21 [_402_ _406_] _399__4_ d_lut_NAND2X1
AINVX1_137 [w_C_5_] _410_ d_lut_INVX1
AOR2X2_7 [i_add2_5_ i_add1_5_] _411_ d_lut_OR2X2
ANAND2X1_22 [i_add2_5_ i_add1_5_] _412_ d_lut_NAND2X1
ANAND3X1_45 [_410_ _412_ _411_] _413_ d_lut_NAND3X1
ANOR2X1_54 [i_add2_5_ i_add1_5_] _407_ d_lut_NOR2X1
AAND2X2_34 [i_add2_5_ i_add1_5_] _408_ d_lut_AND2X2
AOAI21X1_26 [_407_ _408_ w_C_5_] _409_ d_lut_OAI21X1
ANAND2X1_23 [_409_ _413_] _399__5_ d_lut_NAND2X1
AINVX1_138 [w_C_6_] _417_ d_lut_INVX1
AOR2X2_8 [i_add2_6_ i_add1_6_] _418_ d_lut_OR2X2
ANAND2X1_24 [i_add2_6_ i_add1_6_] _419_ d_lut_NAND2X1
ANAND3X1_46 [_417_ _419_ _418_] _420_ d_lut_NAND3X1
ANOR2X1_55 [i_add2_6_ i_add1_6_] _414_ d_lut_NOR2X1
AAND2X2_35 [i_add2_6_ i_add1_6_] _415_ d_lut_AND2X2
AOAI21X1_27 [_414_ _415_ w_C_6_] _416_ d_lut_OAI21X1
ANAND2X1_25 [_416_ _420_] _399__6_ d_lut_NAND2X1
AINVX1_139 [w_C_7_] _424_ d_lut_INVX1
AOR2X2_9 [i_add2_7_ i_add1_7_] _425_ d_lut_OR2X2
ANAND2X1_26 [i_add2_7_ i_add1_7_] _426_ d_lut_NAND2X1
ANAND3X1_47 [_424_ _426_ _425_] _427_ d_lut_NAND3X1
ANOR2X1_56 [i_add2_7_ i_add1_7_] _421_ d_lut_NOR2X1
AAND2X2_36 [i_add2_7_ i_add1_7_] _422_ d_lut_AND2X2
AOAI21X1_28 [_421_ _422_ w_C_7_] _423_ d_lut_OAI21X1
ANAND2X1_27 [_423_ _427_] _399__7_ d_lut_NAND2X1
AINVX1_140 [w_C_8_] _431_ d_lut_INVX1
AOR2X2_10 [i_add2_8_ i_add1_8_] _432_ d_lut_OR2X2
ANAND2X1_28 [i_add2_8_ i_add1_8_] _433_ d_lut_NAND2X1
ANAND3X1_48 [_431_ _433_ _432_] _434_ d_lut_NAND3X1
ANOR2X1_57 [i_add2_8_ i_add1_8_] _428_ d_lut_NOR2X1
AAND2X2_37 [i_add2_8_ i_add1_8_] _429_ d_lut_AND2X2
AOAI21X1_29 [_428_ _429_ w_C_8_] _430_ d_lut_OAI21X1
ANAND2X1_29 [_430_ _434_] _399__8_ d_lut_NAND2X1
AINVX1_141 [w_C_9_] _438_ d_lut_INVX1
AOR2X2_11 [i_add2_9_ i_add1_9_] _439_ d_lut_OR2X2
ANAND2X1_30 [i_add2_9_ i_add1_9_] _440_ d_lut_NAND2X1
ANAND3X1_49 [_438_ _440_ _439_] _441_ d_lut_NAND3X1
ANOR2X1_58 [i_add2_9_ i_add1_9_] _435_ d_lut_NOR2X1
AAND2X2_38 [i_add2_9_ i_add1_9_] _436_ d_lut_AND2X2
AOAI21X1_30 [_435_ _436_ w_C_9_] _437_ d_lut_OAI21X1
ANAND2X1_31 [_437_ _441_] _399__9_ d_lut_NAND2X1
AINVX1_142 [w_C_10_] _445_ d_lut_INVX1
AOR2X2_12 [i_add2_10_ i_add1_10_] _446_ d_lut_OR2X2
ANAND2X1_32 [i_add2_10_ i_add1_10_] _447_ d_lut_NAND2X1
ANAND3X1_50 [_445_ _447_ _446_] _448_ d_lut_NAND3X1
ANOR2X1_59 [i_add2_10_ i_add1_10_] _442_ d_lut_NOR2X1
AAND2X2_39 [i_add2_10_ i_add1_10_] _443_ d_lut_AND2X2
AOAI21X1_31 [_442_ _443_ w_C_10_] _444_ d_lut_OAI21X1
ANAND2X1_33 [_444_ _448_] _399__10_ d_lut_NAND2X1
AINVX1_143 [w_C_11_] _452_ d_lut_INVX1
AOR2X2_13 [i_add2_11_ i_add1_11_] _453_ d_lut_OR2X2
ANAND2X1_34 [i_add2_11_ i_add1_11_] _454_ d_lut_NAND2X1
ANAND3X1_51 [_452_ _454_ _453_] _455_ d_lut_NAND3X1
ANOR2X1_60 [i_add2_11_ i_add1_11_] _449_ d_lut_NOR2X1
AAND2X2_40 [i_add2_11_ i_add1_11_] _450_ d_lut_AND2X2
AOAI21X1_32 [_449_ _450_ w_C_11_] _451_ d_lut_OAI21X1
ANAND2X1_35 [_451_ _455_] _399__11_ d_lut_NAND2X1
AINVX1_144 [w_C_12_] _459_ d_lut_INVX1
AOR2X2_14 [i_add2_12_ i_add1_12_] _460_ d_lut_OR2X2
ANAND2X1_36 [i_add2_12_ i_add1_12_] _461_ d_lut_NAND2X1
ANAND3X1_52 [_459_ _461_ _460_] _462_ d_lut_NAND3X1
ANOR2X1_61 [i_add2_12_ i_add1_12_] _456_ d_lut_NOR2X1
AAND2X2_41 [i_add2_12_ i_add1_12_] _457_ d_lut_AND2X2
AOAI21X1_33 [_456_ _457_ w_C_12_] _458_ d_lut_OAI21X1
ANAND2X1_37 [_458_ _462_] _399__12_ d_lut_NAND2X1
AINVX1_145 [w_C_13_] _466_ d_lut_INVX1
AOR2X2_15 [i_add2_13_ i_add1_13_] _467_ d_lut_OR2X2
ANAND2X1_38 [i_add2_13_ i_add1_13_] _468_ d_lut_NAND2X1
ANAND3X1_53 [_466_ _468_ _467_] _469_ d_lut_NAND3X1
ANOR2X1_62 [i_add2_13_ i_add1_13_] _463_ d_lut_NOR2X1
AAND2X2_42 [i_add2_13_ i_add1_13_] _464_ d_lut_AND2X2
AOAI21X1_34 [_463_ _464_ w_C_13_] _465_ d_lut_OAI21X1
ANAND2X1_39 [_465_ _469_] _399__13_ d_lut_NAND2X1
AINVX1_146 [w_C_14_] _473_ d_lut_INVX1
AOR2X2_16 [i_add2_14_ i_add1_14_] _474_ d_lut_OR2X2
ANAND2X1_40 [i_add2_14_ i_add1_14_] _475_ d_lut_NAND2X1
ANAND3X1_54 [_473_ _475_ _474_] _476_ d_lut_NAND3X1
ANOR2X1_63 [i_add2_14_ i_add1_14_] _470_ d_lut_NOR2X1
AAND2X2_43 [i_add2_14_ i_add1_14_] _471_ d_lut_AND2X2
AOAI21X1_35 [_470_ _471_ w_C_14_] _472_ d_lut_OAI21X1
ANAND2X1_41 [_472_ _476_] _399__14_ d_lut_NAND2X1
AINVX1_147 [w_C_15_] _480_ d_lut_INVX1
AOR2X2_17 [i_add2_15_ i_add1_15_] _481_ d_lut_OR2X2
ANAND2X1_42 [i_add2_15_ i_add1_15_] _482_ d_lut_NAND2X1
ANAND3X1_55 [_480_ _482_ _481_] _483_ d_lut_NAND3X1
ANOR2X1_64 [i_add2_15_ i_add1_15_] _477_ d_lut_NOR2X1
AAND2X2_44 [i_add2_15_ i_add1_15_] _478_ d_lut_AND2X2
AOAI21X1_36 [_477_ _478_ w_C_15_] _479_ d_lut_OAI21X1
ANAND2X1_43 [_479_ _483_] _399__15_ d_lut_NAND2X1
AINVX1_148 [w_C_16_] _487_ d_lut_INVX1
AOR2X2_18 [i_add2_16_ i_add1_16_] _488_ d_lut_OR2X2
ANAND2X1_44 [i_add2_16_ i_add1_16_] _489_ d_lut_NAND2X1
ANAND3X1_56 [_487_ _489_ _488_] _490_ d_lut_NAND3X1
ANOR2X1_65 [i_add2_16_ i_add1_16_] _484_ d_lut_NOR2X1
AAND2X2_45 [i_add2_16_ i_add1_16_] _485_ d_lut_AND2X2
AOAI21X1_37 [_484_ _485_ w_C_16_] _486_ d_lut_OAI21X1
ANAND2X1_45 [_486_ _490_] _399__16_ d_lut_NAND2X1
AINVX1_149 [w_C_17_] _494_ d_lut_INVX1
AOR2X2_19 [i_add2_17_ i_add1_17_] _495_ d_lut_OR2X2
ANAND2X1_46 [i_add2_17_ i_add1_17_] _496_ d_lut_NAND2X1
ANAND3X1_57 [_494_ _496_ _495_] _497_ d_lut_NAND3X1
ANOR2X1_66 [i_add2_17_ i_add1_17_] _491_ d_lut_NOR2X1
AAND2X2_46 [i_add2_17_ i_add1_17_] _492_ d_lut_AND2X2
AOAI21X1_38 [_491_ _492_ w_C_17_] _493_ d_lut_OAI21X1
ANAND2X1_47 [_493_ _497_] _399__17_ d_lut_NAND2X1
AINVX1_150 [w_C_18_] _501_ d_lut_INVX1
AOR2X2_20 [i_add2_18_ i_add1_18_] _502_ d_lut_OR2X2
ANAND2X1_48 [i_add2_18_ i_add1_18_] _503_ d_lut_NAND2X1
ANAND3X1_58 [_501_ _503_ _502_] _504_ d_lut_NAND3X1
ANOR2X1_67 [i_add2_18_ i_add1_18_] _498_ d_lut_NOR2X1
AAND2X2_47 [i_add2_18_ i_add1_18_] _499_ d_lut_AND2X2
AOAI21X1_39 [_498_ _499_ w_C_18_] _500_ d_lut_OAI21X1
ANAND2X1_49 [_500_ _504_] _399__18_ d_lut_NAND2X1
AINVX1_151 [w_C_19_] _508_ d_lut_INVX1
AOR2X2_21 [i_add2_19_ i_add1_19_] _509_ d_lut_OR2X2
ANAND2X1_50 [i_add2_19_ i_add1_19_] _510_ d_lut_NAND2X1
ANAND3X1_59 [_508_ _510_ _509_] _511_ d_lut_NAND3X1
ANOR2X1_68 [i_add2_19_ i_add1_19_] _505_ d_lut_NOR2X1
AAND2X2_48 [i_add2_19_ i_add1_19_] _506_ d_lut_AND2X2
AOAI21X1_40 [_505_ _506_ w_C_19_] _507_ d_lut_OAI21X1
ANAND2X1_51 [_507_ _511_] _399__19_ d_lut_NAND2X1
AINVX1_152 [w_C_20_] _515_ d_lut_INVX1
AOR2X2_22 [i_add2_20_ i_add1_20_] _516_ d_lut_OR2X2
ANAND2X1_52 [i_add2_20_ i_add1_20_] _517_ d_lut_NAND2X1
ANAND3X1_60 [_515_ _517_ _516_] _518_ d_lut_NAND3X1
ANOR2X1_69 [i_add2_20_ i_add1_20_] _512_ d_lut_NOR2X1
AAND2X2_49 [i_add2_20_ i_add1_20_] _513_ d_lut_AND2X2
AOAI21X1_41 [_512_ _513_ w_C_20_] _514_ d_lut_OAI21X1
ANAND2X1_53 [_514_ _518_] _399__20_ d_lut_NAND2X1
AINVX1_153 [w_C_21_] _522_ d_lut_INVX1
AOR2X2_23 [i_add2_21_ i_add1_21_] _523_ d_lut_OR2X2
ANAND2X1_54 [i_add2_21_ i_add1_21_] _524_ d_lut_NAND2X1
ANAND3X1_61 [_522_ _524_ _523_] _525_ d_lut_NAND3X1
ANOR2X1_70 [i_add2_21_ i_add1_21_] _519_ d_lut_NOR2X1
AAND2X2_50 [i_add2_21_ i_add1_21_] _520_ d_lut_AND2X2
AOAI21X1_42 [_519_ _520_ w_C_21_] _521_ d_lut_OAI21X1
ANAND2X1_55 [_521_ _525_] _399__21_ d_lut_NAND2X1
AINVX1_154 [w_C_22_] _529_ d_lut_INVX1
AOR2X2_24 [i_add2_22_ i_add1_22_] _530_ d_lut_OR2X2
ANAND2X1_56 [i_add2_22_ i_add1_22_] _531_ d_lut_NAND2X1
ANAND3X1_62 [_529_ _531_ _530_] _532_ d_lut_NAND3X1
ANOR2X1_71 [i_add2_22_ i_add1_22_] _526_ d_lut_NOR2X1
AAND2X2_51 [i_add2_22_ i_add1_22_] _527_ d_lut_AND2X2
AOAI21X1_43 [_526_ _527_ w_C_22_] _528_ d_lut_OAI21X1
ANAND2X1_57 [_528_ _532_] _399__22_ d_lut_NAND2X1
AINVX1_155 [w_C_23_] _536_ d_lut_INVX1
AOR2X2_25 [i_add2_23_ i_add1_23_] _537_ d_lut_OR2X2
ANAND2X1_58 [i_add2_23_ i_add1_23_] _538_ d_lut_NAND2X1
ANAND3X1_63 [_536_ _538_ _537_] _539_ d_lut_NAND3X1
ANOR2X1_72 [i_add2_23_ i_add1_23_] _533_ d_lut_NOR2X1
AAND2X2_52 [i_add2_23_ i_add1_23_] _534_ d_lut_AND2X2
AOAI21X1_44 [_533_ _534_ w_C_23_] _535_ d_lut_OAI21X1
ANAND2X1_59 [_535_ _539_] _399__23_ d_lut_NAND2X1
AINVX1_156 [w_C_24_] _543_ d_lut_INVX1
AOR2X2_26 [i_add2_24_ i_add1_24_] _544_ d_lut_OR2X2
ANAND2X1_60 [i_add2_24_ i_add1_24_] _545_ d_lut_NAND2X1
ANAND3X1_64 [_543_ _545_ _544_] _546_ d_lut_NAND3X1
ANOR2X1_73 [i_add2_24_ i_add1_24_] _540_ d_lut_NOR2X1
AAND2X2_53 [i_add2_24_ i_add1_24_] _541_ d_lut_AND2X2
AOAI21X1_45 [_540_ _541_ w_C_24_] _542_ d_lut_OAI21X1
ANAND2X1_61 [_542_ _546_] _399__24_ d_lut_NAND2X1
AINVX1_157 [w_C_25_] _550_ d_lut_INVX1
AOR2X2_27 [i_add2_25_ i_add1_25_] _551_ d_lut_OR2X2
ANAND2X1_62 [i_add2_25_ i_add1_25_] _552_ d_lut_NAND2X1
ANAND3X1_65 [_550_ _552_ _551_] _553_ d_lut_NAND3X1
ANOR2X1_74 [i_add2_25_ i_add1_25_] _547_ d_lut_NOR2X1
AAND2X2_54 [i_add2_25_ i_add1_25_] _548_ d_lut_AND2X2
AOAI21X1_46 [_547_ _548_ w_C_25_] _549_ d_lut_OAI21X1
ANAND2X1_63 [_549_ _553_] _399__25_ d_lut_NAND2X1
AINVX1_158 [w_C_26_] _557_ d_lut_INVX1
AOR2X2_28 [i_add2_26_ i_add1_26_] _558_ d_lut_OR2X2
ANAND2X1_64 [i_add2_26_ i_add1_26_] _559_ d_lut_NAND2X1
ANAND3X1_66 [_557_ _559_ _558_] _560_ d_lut_NAND3X1
ANOR2X1_75 [i_add2_26_ i_add1_26_] _554_ d_lut_NOR2X1
AAND2X2_55 [i_add2_26_ i_add1_26_] _555_ d_lut_AND2X2
AOAI21X1_47 [_554_ _555_ w_C_26_] _556_ d_lut_OAI21X1
ANAND2X1_65 [_556_ _560_] _399__26_ d_lut_NAND2X1
AINVX1_159 [w_C_27_] _564_ d_lut_INVX1
AOR2X2_29 [i_add2_27_ i_add1_27_] _565_ d_lut_OR2X2
ANAND2X1_66 [i_add2_27_ i_add1_27_] _566_ d_lut_NAND2X1
ANAND3X1_67 [_564_ _566_ _565_] _567_ d_lut_NAND3X1
ANOR2X1_76 [i_add2_27_ i_add1_27_] _561_ d_lut_NOR2X1
AAND2X2_56 [i_add2_27_ i_add1_27_] _562_ d_lut_AND2X2
AOAI21X1_48 [_561_ _562_ w_C_27_] _563_ d_lut_OAI21X1
ANAND2X1_67 [_563_ _567_] _399__27_ d_lut_NAND2X1
AINVX1_160 [w_C_28_] _571_ d_lut_INVX1
AOR2X2_30 [i_add2_28_ i_add1_28_] _572_ d_lut_OR2X2
ANAND2X1_68 [i_add2_28_ i_add1_28_] _573_ d_lut_NAND2X1