*SPICE netlist created from BLIF module cla_64bit by blif2BSpice
.include /usr/local/share/qflow/tech/osu035/osu035_stdcells.sp
.subckt cla_64bit vdd gnd i_add1[0] i_add1[1] i_add1[2] i_add1[3] i_add1[4] i_add1[5] i_add1[6] i_add1[7] i_add1[8] i_add1[9] i_add1[10] i_add1[11] i_add1[12] i_add1[13] i_add1[14] i_add1[15] i_add1[16] i_add1[17] i_add1[18] i_add1[19] i_add1[20] i_add1[21] i_add1[22] i_add1[23] i_add1[24] i_add1[25] i_add1[26] i_add1[27] i_add1[28] i_add1[29] i_add1[30] i_add1[31] i_add1[32] i_add1[33] i_add1[34] i_add1[35] i_add1[36] i_add1[37] i_add1[38] i_add1[39] i_add1[40] i_add1[41] i_add1[42] i_add1[43] i_add1[44] i_add1[45] i_add1[46] i_add1[47] i_add1[48] i_add1[49] i_add1[50] i_add1[51] i_add1[52] i_add1[53] i_add1[54] i_add1[55] i_add1[56] i_add1[57] i_add1[58] i_add1[59] i_add1[60] i_add1[61] i_add1[62] i_add1[63] i_add2[0] i_add2[1] i_add2[2] i_add2[3] i_add2[4] i_add2[5] i_add2[6] i_add2[7] i_add2[8] i_add2[9] i_add2[10] i_add2[11] i_add2[12] i_add2[13] i_add2[14] i_add2[15] i_add2[16] i_add2[17] i_add2[18] i_add2[19] i_add2[20] i_add2[21] i_add2[22] i_add2[23] i_add2[24] i_add2[25] i_add2[26] i_add2[27] i_add2[28] i_add2[29] i_add2[30] i_add2[31] i_add2[32] i_add2[33] i_add2[34] i_add2[35] i_add2[36] i_add2[37] i_add2[38] i_add2[39] i_add2[40] i_add2[41] i_add2[42] i_add2[43] i_add2[44] i_add2[45] i_add2[46] i_add2[47] i_add2[48] i_add2[49] i_add2[50] i_add2[51] i_add2[52] i_add2[53] i_add2[54] i_add2[55] i_add2[56] i_add2[57] i_add2[58] i_add2[59] i_add2[60] i_add2[61] i_add2[62] i_add2[63] o_result[0] o_result[1] o_result[2] o_result[3] o_result[4] o_result[5] o_result[6] o_result[7] o_result[8] o_result[9] o_result[10] o_result[11] o_result[12] o_result[13] o_result[14] o_result[15] o_result[16] o_result[17] o_result[18] o_result[19] o_result[20] o_result[21] o_result[22] o_result[23] o_result[24] o_result[25] o_result[26] o_result[27] o_result[28] o_result[29] o_result[30] o_result[31] o_result[32] o_result[33] o_result[34] o_result[35] o_result[36] o_result[37] o_result[38] o_result[39] o_result[40] o_result[41] o_result[42] o_result[43] o_result[44] o_result[45] o_result[46] o_result[47] o_result[48] o_result[49] o_result[50] o_result[51] o_result[52] o_result[53] o_result[54] o_result[55] o_result[56] o_result[57] o_result[58] o_result[59] o_result[60] o_result[61] o_result[62] o_result[63] o_result[64] 
XNAND3X1_1 _147_ vdd gnd _139_ _144_ _148_ NAND3X1
XOAI21X1_1 gnd vdd i_add2[24] i_add1[24] _149_ _148_ OAI21X1
XINVX1_1 _149_ w_C[25] vdd gnd INVX1
XINVX1_2 i_add2[25] _150_ vdd gnd INVX1
XINVX1_3 i_add1[25] _151_ vdd gnd INVX1
XNOR2X1_1 vdd _151_ gnd _152_ _150_ NOR2X1
XINVX1_4 _152_ _153_ vdd gnd INVX1
XNOR2X1_2 vdd i_add1[24] gnd _154_ i_add2[24] NOR2X1
XINVX1_5 _154_ _155_ vdd gnd INVX1
XNOR2X1_3 vdd i_add1[25] gnd _156_ i_add2[25] NOR2X1
XINVX1_6 _156_ _157_ vdd gnd INVX1
XNAND3X1_2 _157_ vdd gnd _155_ _148_ _158_ NAND3X1
XAND2X2_1 vdd gnd _158_ _153_ _159_ AND2X2
XINVX1_7 _159_ w_C[26] vdd gnd INVX1
XAND2X2_2 vdd gnd i_add2[26] i_add1[26] _160_ AND2X2
XINVX1_8 _160_ _161_ vdd gnd INVX1
XNAND3X1_3 _161_ vdd gnd _153_ _158_ _162_ NAND3X1
XOAI21X1_2 gnd vdd i_add2[26] i_add1[26] _163_ _162_ OAI21X1
XINVX1_9 _163_ w_C[27] vdd gnd INVX1
XINVX1_10 i_add2[27] _164_ vdd gnd INVX1
XINVX1_11 i_add1[27] _165_ vdd gnd INVX1
XNOR2X1_4 vdd _165_ gnd _166_ _164_ NOR2X1
XINVX1_12 _166_ _167_ vdd gnd INVX1
XNOR2X1_5 vdd i_add1[26] gnd _168_ i_add2[26] NOR2X1
XINVX1_13 _168_ _169_ vdd gnd INVX1
XNOR2X1_6 vdd i_add1[27] gnd _170_ i_add2[27] NOR2X1
XINVX1_14 _170_ _171_ vdd gnd INVX1
XNAND3X1_4 _171_ vdd gnd _169_ _162_ _172_ NAND3X1
XAND2X2_3 vdd gnd _172_ _167_ _173_ AND2X2
XINVX1_15 _173_ w_C[28] vdd gnd INVX1
XAND2X2_4 vdd gnd i_add2[28] i_add1[28] _174_ AND2X2
XINVX1_16 _174_ _175_ vdd gnd INVX1
XNAND3X1_5 _175_ vdd gnd _167_ _172_ _176_ NAND3X1
XOAI21X1_3 gnd vdd i_add2[28] i_add1[28] _177_ _176_ OAI21X1
XINVX1_17 _177_ w_C[29] vdd gnd INVX1
XINVX1_18 i_add2[29] _178_ vdd gnd INVX1
XINVX1_19 i_add1[29] _179_ vdd gnd INVX1
XNOR2X1_7 vdd _179_ gnd _180_ _178_ NOR2X1
XINVX1_20 _180_ _181_ vdd gnd INVX1
XNOR2X1_8 vdd i_add1[28] gnd _182_ i_add2[28] NOR2X1
XINVX1_21 _182_ _183_ vdd gnd INVX1
XNOR2X1_9 vdd i_add1[29] gnd _184_ i_add2[29] NOR2X1
XINVX1_22 _184_ _185_ vdd gnd INVX1
XNAND3X1_6 _185_ vdd gnd _183_ _176_ _186_ NAND3X1
XAND2X2_5 vdd gnd _186_ _181_ _187_ AND2X2
XINVX1_23 _187_ w_C[30] vdd gnd INVX1
XAND2X2_6 vdd gnd i_add2[30] i_add1[30] _188_ AND2X2
XINVX1_24 _188_ _189_ vdd gnd INVX1
XNAND3X1_7 _189_ vdd gnd _181_ _186_ _190_ NAND3X1
XOAI21X1_4 gnd vdd i_add2[30] i_add1[30] _191_ _190_ OAI21X1
XINVX1_25 _191_ w_C[31] vdd gnd INVX1
XINVX1_26 i_add2[31] _192_ vdd gnd INVX1
XINVX1_27 i_add1[31] _193_ vdd gnd INVX1
XNOR2X1_10 vdd _193_ gnd _194_ _192_ NOR2X1
XINVX1_28 _194_ _195_ vdd gnd INVX1
XNOR2X1_11 vdd i_add1[30] gnd _196_ i_add2[30] NOR2X1
XINVX1_29 _196_ _197_ vdd gnd INVX1
XNOR2X1_12 vdd i_add1[31] gnd _198_ i_add2[31] NOR2X1
XINVX1_30 _198_ _199_ vdd gnd INVX1
XNAND3X1_8 _199_ vdd gnd _197_ _190_ _200_ NAND3X1
XAND2X2_7 vdd gnd _200_ _195_ _201_ AND2X2
XINVX1_31 _201_ w_C[32] vdd gnd INVX1
XAND2X2_8 vdd gnd i_add2[32] i_add1[32] _202_ AND2X2
XINVX1_32 _202_ _203_ vdd gnd INVX1
XNAND3X1_9 _203_ vdd gnd _195_ _200_ _204_ NAND3X1
XOAI21X1_5 gnd vdd i_add2[32] i_add1[32] _205_ _204_ OAI21X1
XINVX1_33 _205_ w_C[33] vdd gnd INVX1
XINVX1_34 i_add2[33] _206_ vdd gnd INVX1
XINVX1_35 i_add1[33] _207_ vdd gnd INVX1
XNOR2X1_13 vdd _207_ gnd _208_ _206_ NOR2X1
XINVX1_36 _208_ _209_ vdd gnd INVX1
XNOR2X1_14 vdd i_add1[32] gnd _210_ i_add2[32] NOR2X1
XINVX1_37 _210_ _211_ vdd gnd INVX1
XNOR2X1_15 vdd i_add1[33] gnd _212_ i_add2[33] NOR2X1
XINVX1_38 _212_ _213_ vdd gnd INVX1
XNAND3X1_10 _213_ vdd gnd _211_ _204_ _214_ NAND3X1
XAND2X2_9 vdd gnd _214_ _209_ _215_ AND2X2
XINVX1_39 _215_ w_C[34] vdd gnd INVX1
XAND2X2_10 vdd gnd i_add2[34] i_add1[34] _216_ AND2X2
XINVX1_40 _216_ _217_ vdd gnd INVX1
XNAND3X1_11 _217_ vdd gnd _209_ _214_ _218_ NAND3X1
XOAI21X1_6 gnd vdd i_add2[34] i_add1[34] _219_ _218_ OAI21X1
XINVX1_41 _219_ w_C[35] vdd gnd INVX1
XINVX1_42 i_add2[35] _220_ vdd gnd INVX1
XINVX1_43 i_add1[35] _221_ vdd gnd INVX1
XNOR2X1_16 vdd _221_ gnd _222_ _220_ NOR2X1
XINVX1_44 _222_ _223_ vdd gnd INVX1
XNOR2X1_17 vdd i_add1[34] gnd _224_ i_add2[34] NOR2X1
XINVX1_45 _224_ _225_ vdd gnd INVX1
XNOR2X1_18 vdd i_add1[35] gnd _226_ i_add2[35] NOR2X1
XINVX1_46 _226_ _227_ vdd gnd INVX1
XNAND3X1_12 _227_ vdd gnd _225_ _218_ _228_ NAND3X1
XAND2X2_11 vdd gnd _228_ _223_ _229_ AND2X2
XINVX1_47 _229_ w_C[36] vdd gnd INVX1
XAND2X2_12 vdd gnd i_add2[36] i_add1[36] _230_ AND2X2
XINVX1_48 _230_ _231_ vdd gnd INVX1
XNAND3X1_13 _231_ vdd gnd _223_ _228_ _232_ NAND3X1
XOAI21X1_7 gnd vdd i_add2[36] i_add1[36] _233_ _232_ OAI21X1
XINVX1_49 _233_ w_C[37] vdd gnd INVX1
XINVX1_50 i_add2[37] _234_ vdd gnd INVX1
XINVX1_51 i_add1[37] _235_ vdd gnd INVX1
XNOR2X1_19 vdd _235_ gnd _236_ _234_ NOR2X1
XINVX1_52 _236_ _237_ vdd gnd INVX1
XNOR2X1_20 vdd i_add1[36] gnd _238_ i_add2[36] NOR2X1
XINVX1_53 _238_ _239_ vdd gnd INVX1
XNOR2X1_21 vdd i_add1[37] gnd _240_ i_add2[37] NOR2X1
XINVX1_54 _240_ _241_ vdd gnd INVX1
XNAND3X1_14 _241_ vdd gnd _239_ _232_ _242_ NAND3X1
XAND2X2_13 vdd gnd _242_ _237_ _243_ AND2X2
XINVX1_55 _243_ w_C[38] vdd gnd INVX1
XAND2X2_14 vdd gnd i_add2[38] i_add1[38] _244_ AND2X2
XINVX1_56 _244_ _245_ vdd gnd INVX1
XNAND3X1_15 _245_ vdd gnd _237_ _242_ _246_ NAND3X1
XOAI21X1_8 gnd vdd i_add2[38] i_add1[38] _247_ _246_ OAI21X1
XINVX1_57 _247_ w_C[39] vdd gnd INVX1
XINVX1_58 i_add2[39] _248_ vdd gnd INVX1
XINVX1_59 i_add1[39] _249_ vdd gnd INVX1
XNOR2X1_22 vdd _249_ gnd _250_ _248_ NOR2X1
XINVX1_60 _250_ _251_ vdd gnd INVX1
XNOR2X1_23 vdd i_add1[38] gnd _252_ i_add2[38] NOR2X1
XINVX1_61 _252_ _253_ vdd gnd INVX1
XNOR2X1_24 vdd i_add1[39] gnd _254_ i_add2[39] NOR2X1
XINVX1_62 _254_ _255_ vdd gnd INVX1
XNAND3X1_16 _255_ vdd gnd _253_ _246_ _256_ NAND3X1
XAND2X2_15 vdd gnd _256_ _251_ _257_ AND2X2
XINVX1_63 _257_ w_C[40] vdd gnd INVX1
XAND2X2_16 vdd gnd i_add2[40] i_add1[40] _258_ AND2X2
XINVX1_64 _258_ _259_ vdd gnd INVX1
XNAND3X1_17 _259_ vdd gnd _251_ _256_ _260_ NAND3X1
XOAI21X1_9 gnd vdd i_add2[40] i_add1[40] _261_ _260_ OAI21X1
XINVX1_65 _261_ w_C[41] vdd gnd INVX1
XINVX1_66 i_add2[41] _262_ vdd gnd INVX1
XINVX1_67 i_add1[41] _263_ vdd gnd INVX1
XNOR2X1_25 vdd _263_ gnd _264_ _262_ NOR2X1
XINVX1_68 _264_ _265_ vdd gnd INVX1
XNOR2X1_26 vdd i_add1[40] gnd _266_ i_add2[40] NOR2X1
XINVX1_69 _266_ _267_ vdd gnd INVX1
XNOR2X1_27 vdd i_add1[41] gnd _268_ i_add2[41] NOR2X1
XINVX1_70 _268_ _269_ vdd gnd INVX1
XNAND3X1_18 _269_ vdd gnd _267_ _260_ _270_ NAND3X1
XAND2X2_17 vdd gnd _270_ _265_ _271_ AND2X2
XINVX1_71 _271_ w_C[42] vdd gnd INVX1
XAND2X2_18 vdd gnd i_add2[42] i_add1[42] _272_ AND2X2
XINVX1_72 _272_ _273_ vdd gnd INVX1
XNAND3X1_19 _273_ vdd gnd _265_ _270_ _274_ NAND3X1
XOAI21X1_10 gnd vdd i_add2[42] i_add1[42] _275_ _274_ OAI21X1
XINVX1_73 _275_ w_C[43] vdd gnd INVX1
XINVX1_74 i_add2[43] _276_ vdd gnd INVX1
XINVX1_75 i_add1[43] _277_ vdd gnd INVX1
XNOR2X1_28 vdd _277_ gnd _278_ _276_ NOR2X1
XINVX1_76 _278_ _279_ vdd gnd INVX1
XNOR2X1_29 vdd i_add1[42] gnd _280_ i_add2[42] NOR2X1
XINVX1_77 _280_ _281_ vdd gnd INVX1
XNOR2X1_30 vdd i_add1[43] gnd _282_ i_add2[43] NOR2X1
XINVX1_78 _282_ _283_ vdd gnd INVX1
XNAND3X1_20 _283_ vdd gnd _281_ _274_ _284_ NAND3X1
XAND2X2_19 vdd gnd _284_ _279_ _285_ AND2X2
XINVX1_79 _285_ w_C[44] vdd gnd INVX1
XAND2X2_20 vdd gnd i_add2[44] i_add1[44] _286_ AND2X2
XINVX1_80 _286_ _287_ vdd gnd INVX1
XNAND3X1_21 _287_ vdd gnd _279_ _284_ _288_ NAND3X1
XOAI21X1_11 gnd vdd i_add2[44] i_add1[44] _289_ _288_ OAI21X1
XINVX1_81 _289_ w_C[45] vdd gnd INVX1
XINVX1_82 i_add2[45] _290_ vdd gnd INVX1
XINVX1_83 i_add1[45] _291_ vdd gnd INVX1
XNOR2X1_31 vdd _291_ gnd _292_ _290_ NOR2X1
XINVX1_84 _292_ _293_ vdd gnd INVX1
XNOR2X1_32 vdd i_add1[44] gnd _294_ i_add2[44] NOR2X1
XINVX1_85 _294_ _295_ vdd gnd INVX1
XNOR2X1_33 vdd i_add1[45] gnd _296_ i_add2[45] NOR2X1
XINVX1_86 _296_ _297_ vdd gnd INVX1
XNAND3X1_22 _297_ vdd gnd _295_ _288_ _298_ NAND3X1
XAND2X2_21 vdd gnd _298_ _293_ _299_ AND2X2
XINVX1_87 _299_ w_C[46] vdd gnd INVX1
XAND2X2_22 vdd gnd i_add2[46] i_add1[46] _300_ AND2X2
XINVX1_88 _300_ _301_ vdd gnd INVX1
XNAND3X1_23 _301_ vdd gnd _293_ _298_ _302_ NAND3X1
XOAI21X1_12 gnd vdd i_add2[46] i_add1[46] _303_ _302_ OAI21X1
XINVX1_89 _303_ w_C[47] vdd gnd INVX1
XINVX1_90 i_add2[47] _304_ vdd gnd INVX1
XINVX1_91 i_add1[47] _305_ vdd gnd INVX1
XNOR2X1_34 vdd _305_ gnd _306_ _304_ NOR2X1
XINVX1_92 _306_ _307_ vdd gnd INVX1
XNOR2X1_35 vdd i_add1[46] gnd _308_ i_add2[46] NOR2X1
XINVX1_93 _308_ _309_ vdd gnd INVX1
XNOR2X1_36 vdd i_add1[47] gnd _310_ i_add2[47] NOR2X1
XINVX1_94 _310_ _311_ vdd gnd INVX1
XNAND3X1_24 _311_ vdd gnd _309_ _302_ _312_ NAND3X1
XAND2X2_23 vdd gnd _312_ _307_ _313_ AND2X2
XINVX1_95 _313_ w_C[48] vdd gnd INVX1
XAND2X2_24 vdd gnd i_add2[48] i_add1[48] _314_ AND2X2
XINVX1_96 _314_ _315_ vdd gnd INVX1
XNAND3X1_25 _315_ vdd gnd _307_ _312_ _316_ NAND3X1
XOAI21X1_13 gnd vdd i_add2[48] i_add1[48] _317_ _316_ OAI21X1
XINVX1_97 _317_ w_C[49] vdd gnd INVX1
XINVX1_98 i_add2[49] _318_ vdd gnd INVX1
XINVX1_99 i_add1[49] _319_ vdd gnd INVX1
XNOR2X1_37 vdd _319_ gnd _320_ _318_ NOR2X1
XINVX1_100 _320_ _321_ vdd gnd INVX1
XNOR2X1_38 vdd i_add1[48] gnd _322_ i_add2[48] NOR2X1
XINVX1_101 _322_ _323_ vdd gnd INVX1
XNOR2X1_39 vdd i_add1[49] gnd _324_ i_add2[49] NOR2X1
XINVX1_102 _324_ _325_ vdd gnd INVX1
XNAND3X1_26 _325_ vdd gnd _323_ _316_ _326_ NAND3X1
XAND2X2_25 vdd gnd _326_ _321_ _327_ AND2X2
XINVX1_103 _327_ w_C[50] vdd gnd INVX1
XAND2X2_26 vdd gnd i_add2[50] i_add1[50] _328_ AND2X2
XINVX1_104 _328_ _329_ vdd gnd INVX1
XNAND3X1_27 _329_ vdd gnd _321_ _326_ _330_ NAND3X1
XOAI21X1_14 gnd vdd i_add2[50] i_add1[50] _331_ _330_ OAI21X1
XINVX1_105 _331_ w_C[51] vdd gnd INVX1
XNAND2X1_1 vdd _332_ gnd i_add2[51] i_add1[51] NAND2X1
XNOR2X1_40 vdd i_add1[51] gnd _333_ i_add2[51] NOR2X1
XOAI21X1_15 gnd vdd _333_ _331_ w_C[52] _332_ OAI21X1
XOR2X2_1 _334_ i_add1[52] vdd gnd i_add2[52] OR2X2
XNOR2X1_41 vdd i_add1[50] gnd _335_ i_add2[50] NOR2X1
XINVX1_106 _335_ _336_ vdd gnd INVX1
XINVX1_107 _333_ _337_ vdd gnd INVX1
XNAND3X1_28 _337_ vdd gnd _336_ _330_ _338_ NAND3X1
XNAND2X1_2 vdd _339_ gnd i_add2[52] i_add1[52] NAND2X1
XNAND3X1_29 _339_ vdd gnd _332_ _338_ _340_ NAND3X1
XAND2X2_27 vdd gnd _340_ _334_ w_C[53] AND2X2
XINVX1_108 i_add2[53] _341_ vdd gnd INVX1
XINVX1_109 i_add1[53] _342_ vdd gnd INVX1
XNAND2X1_3 vdd _343_ gnd _341_ _342_ NAND2X1
XNAND3X1_30 _343_ vdd gnd _334_ _340_ _344_ NAND3X1
XOAI21X1_16 gnd vdd _341_ _342_ w_C[54] _344_ OAI21X1
XINVX1_110 i_add2[54] _345_ vdd gnd INVX1
XINVX1_111 i_add1[54] _346_ vdd gnd INVX1
XNAND2X1_4 vdd _347_ gnd _345_ _346_ NAND2X1
XNAND2X1_5 vdd _348_ gnd i_add2[53] i_add1[53] NAND2X1
XNAND2X1_6 vdd _349_ gnd i_add2[54] i_add1[54] NAND2X1
XNAND3X1_31 _349_ vdd gnd _348_ _344_ _350_ NAND3X1
XAND2X2_28 vdd gnd _350_ _347_ w_C[55] AND2X2
XINVX1_112 i_add2[55] _351_ vdd gnd INVX1
XINVX1_113 i_add1[55] _352_ vdd gnd INVX1
XNAND2X1_7 vdd _353_ gnd _351_ _352_ NAND2X1
XNAND3X1_32 _353_ vdd gnd _347_ _350_ _354_ NAND3X1
XOAI21X1_17 gnd vdd _351_ _352_ w_C[56] _354_ OAI21X1
XNOR2X1_42 vdd i_add1[56] gnd _355_ i_add2[56] NOR2X1
XINVX1_114 _355_ _356_ vdd gnd INVX1
XNOR2X1_43 vdd _352_ gnd _357_ _351_ NOR2X1
XINVX1_115 _357_ _358_ vdd gnd INVX1
XINVX1_116 i_add2[56] _359_ vdd gnd INVX1
XINVX1_117 i_add1[56] _360_ vdd gnd INVX1
XNOR2X1_44 vdd _360_ gnd _361_ _359_ NOR2X1
XINVX1_118 _361_ _362_ vdd gnd INVX1
XNAND3X1_33 _362_ vdd gnd _358_ _354_ _363_ NAND3X1
XAND2X2_29 vdd gnd _363_ _356_ w_C[57] AND2X2
XINVX1_119 i_add2[57] _364_ vdd gnd INVX1
XINVX1_120 i_add1[57] _365_ vdd gnd INVX1
XNOR2X1_45 vdd i_add1[57] gnd _366_ i_add2[57] NOR2X1
XINVX1_121 _366_ _367_ vdd gnd INVX1
XNAND3X1_34 _367_ vdd gnd _356_ _363_ _368_ NAND3X1
XOAI21X1_18 gnd vdd _364_ _365_ w_C[58] _368_ OAI21X1
XINVX1_122 i_add2[58] _369_ vdd gnd INVX1
XINVX1_123 i_add1[58] _370_ vdd gnd INVX1
XOAI21X1_19 gnd vdd i_add2[58] i_add1[58] _371_ w_C[58] OAI21X1
XOAI21X1_20 gnd vdd _369_ _370_ w_C[59] _371_ OAI21X1
XNOR2X1_46 vdd _370_ gnd _372_ _369_ NOR2X1
XINVX1_124 _372_ _373_ vdd gnd INVX1
XAND2X2_30 vdd gnd i_add2[59] i_add1[59] _374_ AND2X2
XINVX1_125 _374_ _375_ vdd gnd INVX1
XNAND3X1_35 _375_ vdd gnd _373_ _371_ _376_ NAND3X1
XOAI21X1_21 gnd vdd i_add2[59] i_add1[59] _377_ _376_ OAI21X1
XINVX1_126 _377_ w_C[60] vdd gnd INVX1
XNAND2X1_8 vdd _378_ gnd i_add2[60] i_add1[60] NAND2X1
XNOR2X1_47 vdd i_add1[60] gnd _379_ i_add2[60] NOR2X1
XOAI21X1_22 gnd vdd _379_ _377_ w_C[61] _378_ OAI21X1
XNAND2X1_9 vdd _380_ gnd i_add2[61] i_add1[61] NAND2X1
XINVX1_127 _379_ _381_ vdd gnd INVX1
XNOR2X1_48 vdd i_add1[58] gnd _382_ i_add2[58] NOR2X1
XINVX1_128 _382_ _383_ vdd gnd INVX1
XNOR2X1_49 vdd _365_ gnd _384_ _364_ NOR2X1
XINVX1_129 _384_ _385_ vdd gnd INVX1
XNAND3X1_36 _373_ vdd gnd _385_ _368_ _386_ NAND3X1
XNOR2X1_50 vdd i_add1[59] gnd _387_ i_add2[59] NOR2X1
XINVX1_130 _387_ _388_ vdd gnd INVX1
XNAND3X1_37 _388_ vdd gnd _383_ _386_ _389_ NAND3X1
XNAND3X1_38 _378_ vdd gnd _375_ _389_ _390_ NAND3X1
XOR2X2_2 _391_ i_add1[61] vdd gnd i_add2[61] OR2X2
XNAND3X1_39 _391_ vdd gnd _381_ _390_ _392_ NAND3X1
XNAND2X1_10 vdd w_C[62] gnd _380_ _392_ NAND2X1
XOR2X2_3 _393_ i_add1[62] vdd gnd i_add2[62] OR2X2
XNAND2X1_11 vdd _394_ gnd i_add2[62] i_add1[62] NAND2X1
XNAND3X1_40 _394_ vdd gnd _380_ _392_ _395_ NAND3X1
XAND2X2_31 vdd gnd _395_ _393_ w_C[63] AND2X2
XNAND2X1_12 vdd _396_ gnd i_add2[63] i_add1[63] NAND2X1
XOR2X2_4 _397_ i_add1[63] vdd gnd i_add2[63] OR2X2
XNAND3X1_41 _397_ vdd gnd _393_ _395_ _398_ NAND3X1
XNAND2X1_13 vdd w_C[64] gnd _396_ _398_ NAND2X1
XNAND2X1_14 vdd _0_ gnd i_add2[0] i_add1[0] NAND2X1
XINVX1_131 _0_ w_C[1] vdd gnd INVX1
XNOR2X1_51 vdd i_add1[1] gnd _1_ i_add2[1] NOR2X1
XAOI22X1_1 gnd vdd i_add2[1] i_add1[1] _2_ i_add2[0] i_add1[0] AOI22X1
XNOR2X1_52 vdd _2_ gnd w_C[2] _1_ NOR2X1
XINVX1_132 i_add2[2] _3_ vdd gnd INVX1
XINVX1_133 i_add1[2] _4_ vdd gnd INVX1
XNAND2X1_15 vdd _5_ gnd _3_ _4_ NAND2X1
XNAND2X1_16 vdd _6_ gnd i_add2[2] i_add1[2] NAND2X1
XOAI21X1_23 gnd vdd _1_ _2_ _7_ _6_ OAI21X1
XAND2X2_32 vdd gnd _7_ _5_ w_C[3] AND2X2
XNAND2X1_17 vdd _8_ gnd i_add2[3] i_add1[3] NAND2X1
XOR2X2_5 _9_ i_add1[3] vdd gnd i_add2[3] OR2X2
XNAND3X1_42 _9_ vdd gnd _5_ _7_ _10_ NAND3X1
XNAND2X1_18 vdd w_C[4] gnd _8_ _10_ NAND2X1
XNAND2X1_19 vdd _11_ gnd i_add2[4] i_add1[4] NAND2X1
XNAND3X1_43 _11_ vdd gnd _8_ _10_ _12_ NAND3X1
XOAI21X1_24 gnd vdd i_add2[4] i_add1[4] _13_ _12_ OAI21X1
XINVX1_134 _13_ w_C[5] vdd gnd INVX1
XINVX1_135 i_add2[5] _14_ vdd gnd INVX1
XBUFX2_1 vdd gnd _399_[0] o_result[0] BUFX2
XBUFX2_2 vdd gnd _399_[1] o_result[1] BUFX2
XBUFX2_3 vdd gnd _399_[2] o_result[2] BUFX2
XBUFX2_4 vdd gnd _399_[3] o_result[3] BUFX2
XBUFX2_5 vdd gnd _399_[4] o_result[4] BUFX2
XBUFX2_6 vdd gnd _399_[5] o_result[5] BUFX2
XBUFX2_7 vdd gnd _399_[6] o_result[6] BUFX2
XBUFX2_8 vdd gnd _399_[7] o_result[7] BUFX2
XBUFX2_9 vdd gnd _399_[8] o_result[8] BUFX2
XBUFX2_10 vdd gnd _399_[9] o_result[9] BUFX2
XBUFX2_11 vdd gnd _399_[10] o_result[10] BUFX2
XBUFX2_12 vdd gnd _399_[11] o_result[11] BUFX2
XBUFX2_13 vdd gnd _399_[12] o_result[12] BUFX2
XBUFX2_14 vdd gnd _399_[13] o_result[13] BUFX2
XBUFX2_15 vdd gnd _399_[14] o_result[14] BUFX2
XBUFX2_16 vdd gnd _399_[15] o_result[15] BUFX2
XBUFX2_17 vdd gnd _399_[16] o_result[16] BUFX2
XBUFX2_18 vdd gnd _399_[17] o_result[17] BUFX2
XBUFX2_19 vdd gnd _399_[18] o_result[18] BUFX2
XBUFX2_20 vdd gnd _399_[19] o_result[19] BUFX2
XBUFX2_21 vdd gnd _399_[20] o_result[20] BUFX2
XBUFX2_22 vdd gnd _399_[21] o_result[21] BUFX2
XBUFX2_23 vdd gnd _399_[22] o_result[22] BUFX2
XBUFX2_24 vdd gnd _399_[23] o_result[23] BUFX2
XBUFX2_25 vdd gnd _399_[24] o_result[24] BUFX2
XBUFX2_26 vdd gnd _399_[25] o_result[25] BUFX2
XBUFX2_27 vdd gnd _399_[26] o_result[26] BUFX2
XBUFX2_28 vdd gnd _399_[27] o_result[27] BUFX2
XBUFX2_29 vdd gnd _399_[28] o_result[28] BUFX2
XBUFX2_30 vdd gnd _399_[29] o_result[29] BUFX2
XBUFX2_31 vdd gnd _399_[30] o_result[30] BUFX2
XBUFX2_32 vdd gnd _399_[31] o_result[31] BUFX2
XBUFX2_33 vdd gnd _399_[32] o_result[32] BUFX2
XBUFX2_34 vdd gnd _399_[33] o_result[33] BUFX2
XBUFX2_35 vdd gnd _399_[34] o_result[34] BUFX2
XBUFX2_36 vdd gnd _399_[35] o_result[35] BUFX2
XBUFX2_37 vdd gnd _399_[36] o_result[36] BUFX2
XBUFX2_38 vdd gnd _399_[37] o_result[37] BUFX2
XBUFX2_39 vdd gnd _399_[38] o_result[38] BUFX2
XBUFX2_40 vdd gnd _399_[39] o_result[39] BUFX2
XBUFX2_41 vdd gnd _399_[40] o_result[40] BUFX2
XBUFX2_42 vdd gnd _399_[41] o_result[41] BUFX2
XBUFX2_43 vdd gnd _399_[42] o_result[42] BUFX2
XBUFX2_44 vdd gnd _399_[43] o_result[43] BUFX2
XBUFX2_45 vdd gnd _399_[44] o_result[44] BUFX2
XBUFX2_46 vdd gnd _399_[45] o_result[45] BUFX2
XBUFX2_47 vdd gnd _399_[46] o_result[46] BUFX2
XBUFX2_48 vdd gnd _399_[47] o_result[47] BUFX2
XBUFX2_49 vdd gnd _399_[48] o_result[48] BUFX2
XBUFX2_50 vdd gnd _399_[49] o_result[49] BUFX2
XBUFX2_51 vdd gnd _399_[50] o_result[50] BUFX2
XBUFX2_52 vdd gnd _399_[51] o_result[51] BUFX2
XBUFX2_53 vdd gnd _399_[52] o_result[52] BUFX2
XBUFX2_54 vdd gnd _399_[53] o_result[53] BUFX2
XBUFX2_55 vdd gnd _399_[54] o_result[54] BUFX2
XBUFX2_56 vdd gnd _399_[55] o_result[55] BUFX2
XBUFX2_57 vdd gnd _399_[56] o_result[56] BUFX2
XBUFX2_58 vdd gnd _399_[57] o_result[57] BUFX2
XBUFX2_59 vdd gnd _399_[58] o_result[58] BUFX2
XBUFX2_60 vdd gnd _399_[59] o_result[59] BUFX2
XBUFX2_61 vdd gnd _399_[60] o_result[60] BUFX2
XBUFX2_62 vdd gnd _399_[61] o_result[61] BUFX2
XBUFX2_63 vdd gnd _399_[62] o_result[62] BUFX2
XBUFX2_64 vdd gnd _399_[63] o_result[63] BUFX2
XBUFX2_65 vdd gnd w_C[64] o_result[64] BUFX2
XINVX1_136 w_C[4] _403_ vdd gnd INVX1
XOR2X2_6 _404_ i_add1[4] vdd gnd i_add2[4] OR2X2
XNAND2X1_20 vdd _405_ gnd i_add2[4] i_add1[4] NAND2X1
XNAND3X1_44 _405_ vdd gnd _403_ _404_ _406_ NAND3X1
XNOR2X1_53 vdd i_add1[4] gnd _400_ i_add2[4] NOR2X1
XAND2X2_33 vdd gnd i_add2[4] i_add1[4] _401_ AND2X2
XOAI21X1_25 gnd vdd _400_ _401_ _402_ w_C[4] OAI21X1
XNAND2X1_21 vdd _399_[4] gnd _402_ _406_ NAND2X1
XINVX1_137 w_C[5] _410_ vdd gnd INVX1
XOR2X2_7 _411_ i_add1[5] vdd gnd i_add2[5] OR2X2
XNAND2X1_22 vdd _412_ gnd i_add2[5] i_add1[5] NAND2X1
XNAND3X1_45 _412_ vdd gnd _410_ _411_ _413_ NAND3X1
XNOR2X1_54 vdd i_add1[5] gnd _407_ i_add2[5] NOR2X1
XAND2X2_34 vdd gnd i_add2[5] i_add1[5] _408_ AND2X2
XOAI21X1_26 gnd vdd _407_ _408_ _409_ w_C[5] OAI21X1
XNAND2X1_23 vdd _399_[5] gnd _409_ _413_ NAND2X1
XINVX1_138 w_C[6] _417_ vdd gnd INVX1
XOR2X2_8 _418_ i_add1[6] vdd gnd i_add2[6] OR2X2
XNAND2X1_24 vdd _419_ gnd i_add2[6] i_add1[6] NAND2X1
XNAND3X1_46 _419_ vdd gnd _417_ _418_ _420_ NAND3X1
XNOR2X1_55 vdd i_add1[6] gnd _414_ i_add2[6] NOR2X1
XAND2X2_35 vdd gnd i_add2[6] i_add1[6] _415_ AND2X2
XOAI21X1_27 gnd vdd _414_ _415_ _416_ w_C[6] OAI21X1
XNAND2X1_25 vdd _399_[6] gnd _416_ _420_ NAND2X1
XINVX1_139 w_C[7] _424_ vdd gnd INVX1
XOR2X2_9 _425_ i_add1[7] vdd gnd i_add2[7] OR2X2
XNAND2X1_26 vdd _426_ gnd i_add2[7] i_add1[7] NAND2X1
XNAND3X1_47 _426_ vdd gnd _424_ _425_ _427_ NAND3X1
XNOR2X1_56 vdd i_add1[7] gnd _421_ i_add2[7] NOR2X1
XAND2X2_36 vdd gnd i_add2[7] i_add1[7] _422_ AND2X2
XOAI21X1_28 gnd vdd _421_ _422_ _423_ w_C[7] OAI21X1
XNAND2X1_27 vdd _399_[7] gnd _423_ _427_ NAND2X1
XINVX1_140 w_C[8] _431_ vdd gnd INVX1
XOR2X2_10 _432_ i_add1[8] vdd gnd i_add2[8] OR2X2
XNAND2X1_28 vdd _433_ gnd i_add2[8] i_add1[8] NAND2X1
XNAND3X1_48 _433_ vdd gnd _431_ _432_ _434_ NAND3X1
XNOR2X1_57 vdd i_add1[8] gnd _428_ i_add2[8] NOR2X1
XAND2X2_37 vdd gnd i_add2[8] i_add1[8] _429_ AND2X2
XOAI21X1_29 gnd vdd _428_ _429_ _430_ w_C[8] OAI21X1
XNAND2X1_29 vdd _399_[8] gnd _430_ _434_ NAND2X1
XINVX1_141 w_C[9] _438_ vdd gnd INVX1
XOR2X2_11 _439_ i_add1[9] vdd gnd i_add2[9] OR2X2
XNAND2X1_30 vdd _440_ gnd i_add2[9] i_add1[9] NAND2X1
XNAND3X1_49 _440_ vdd gnd _438_ _439_ _441_ NAND3X1
XNOR2X1_58 vdd i_add1[9] gnd _435_ i_add2[9] NOR2X1
XAND2X2_38 vdd gnd i_add2[9] i_add1[9] _436_ AND2X2
XOAI21X1_30 gnd vdd _435_ _436_ _437_ w_C[9] OAI21X1
XNAND2X1_31 vdd _399_[9] gnd _437_ _441_ NAND2X1
XINVX1_142 w_C[10] _445_ vdd gnd INVX1
XOR2X2_12 _446_ i_add1[10] vdd gnd i_add2[10] OR2X2
XNAND2X1_32 vdd _447_ gnd i_add2[10] i_add1[10] NAND2X1
XNAND3X1_50 _447_ vdd gnd _445_ _446_ _448_ NAND3X1
XNOR2X1_59 vdd i_add1[10] gnd _442_ i_add2[10] NOR2X1
XAND2X2_39 vdd gnd i_add2[10] i_add1[10] _443_ AND2X2
XOAI21X1_31 gnd vdd _442_ _443_ _444_ w_C[10] OAI21X1
XNAND2X1_33 vdd _399_[10] gnd _444_ _448_ NAND2X1
XINVX1_143 w_C[11] _452_ vdd gnd INVX1
XOR2X2_13 _453_ i_add1[11] vdd gnd i_add2[11] OR2X2
XNAND2X1_34 vdd _454_ gnd i_add2[11] i_add1[11] NAND2X1
XNAND3X1_51 _454_ vdd gnd _452_ _453_ _455_ NAND3X1
XNOR2X1_60 vdd i_add1[11] gnd _449_ i_add2[11] NOR2X1
XAND2X2_40 vdd gnd i_add2[11] i_add1[11] _450_ AND2X2
XOAI21X1_32 gnd vdd _449_ _450_ _451_ w_C[11] OAI21X1
XNAND2X1_35 vdd _399_[11] gnd _451_ _455_ NAND2X1
XINVX1_144 w_C[12] _459_ vdd gnd INVX1
XOR2X2_14 _460_ i_add1[12] vdd gnd i_add2[12] OR2X2
XNAND2X1_36 vdd _461_ gnd i_add2[12] i_add1[12] NAND2X1
XNAND3X1_52 _461_ vdd gnd _459_ _460_ _462_ NAND3X1
XNOR2X1_61 vdd i_add1[12] gnd _456_ i_add2[12] NOR2X1
XAND2X2_41 vdd gnd i_add2[12] i_add1[12] _457_ AND2X2
XOAI21X1_33 gnd vdd _456_ _457_ _458_ w_C[12] OAI21X1
XNAND2X1_37 vdd _399_[12] gnd _458_ _462_ NAND2X1
XINVX1_145 w_C[13] _466_ vdd gnd INVX1
XOR2X2_15 _467_ i_add1[13] vdd gnd i_add2[13] OR2X2
XNAND2X1_38 vdd _468_ gnd i_add2[13] i_add1[13] NAND2X1
XNAND3X1_53 _468_ vdd gnd _466_ _467_ _469_ NAND3X1
XNOR2X1_62 vdd i_add1[13] gnd _463_ i_add2[13] NOR2X1
XAND2X2_42 vdd gnd i_add2[13] i_add1[13] _464_ AND2X2
XOAI21X1_34 gnd vdd _463_ _464_ _465_ w_C[13] OAI21X1
XNAND2X1_39 vdd _399_[13] gnd _465_ _469_ NAND2X1
XINVX1_146 w_C[14] _473_ vdd gnd INVX1
XOR2X2_16 _474_ i_add1[14] vdd gnd i_add2[14] OR2X2
XNAND2X1_40 vdd _475_ gnd i_add2[14] i_add1[14] NAND2X1
XNAND3X1_54 _475_ vdd gnd _473_ _474_ _476_ NAND3X1
XNOR2X1_63 vdd i_add1[14] gnd _470_ i_add2[14] NOR2X1
XAND2X2_43 vdd gnd i_add2[14] i_add1[14] _471_ AND2X2
XOAI21X1_35 gnd vdd _470_ _471_ _472_ w_C[14] OAI21X1
XNAND2X1_41 vdd _399_[14] gnd _472_ _476_ NAND2X1
XINVX1_147 w_C[15] _480_ vdd gnd INVX1
XOR2X2_17 _481_ i_add1[15] vdd gnd i_add2[15] OR2X2
XNAND2X1_42 vdd _482_ gnd i_add2[15] i_add1[15] NAND2X1
XNAND3X1_55 _482_ vdd gnd _480_ _481_ _483_ NAND3X1
XNOR2X1_64 vdd i_add1[15] gnd _477_ i_add2[15] NOR2X1
XAND2X2_44 vdd gnd i_add2[15] i_add1[15] _478_ AND2X2
XOAI21X1_36 gnd vdd _477_ _478_ _479_ w_C[15] OAI21X1
XNAND2X1_43 vdd _399_[15] gnd _479_ _483_ NAND2X1
XINVX1_148 w_C[16] _487_ vdd gnd INVX1
XOR2X2_18 _488_ i_add1[16] vdd gnd i_add2[16] OR2X2
XNAND2X1_44 vdd _489_ gnd i_add2[16] i_add1[16] NAND2X1
XNAND3X1_56 _489_ vdd gnd _487_ _488_ _490_ NAND3X1
XNOR2X1_65 vdd i_add1[16] gnd _484_ i_add2[16] NOR2X1
XAND2X2_45 vdd gnd i_add2[16] i_add1[16] _485_ AND2X2
XOAI21X1_37 gnd vdd _484_ _485_ _486_ w_C[16] OAI21X1
XNAND2X1_45 vdd _399_[16] gnd _486_ _490_ NAND2X1
XINVX1_149 w_C[17] _494_ vdd gnd INVX1
XOR2X2_19 _495_ i_add1[17] vdd gnd i_add2[17] OR2X2
XNAND2X1_46 vdd _496_ gnd i_add2[17] i_add1[17] NAND2X1
XNAND3X1_57 _496_ vdd gnd _494_ _495_ _497_ NAND3X1
XNOR2X1_66 vdd i_add1[17] gnd _491_ i_add2[17] NOR2X1
XAND2X2_46 vdd gnd i_add2[17] i_add1[17] _492_ AND2X2
XOAI21X1_38 gnd vdd _491_ _492_ _493_ w_C[17] OAI21X1
XNAND2X1_47 vdd _399_[17] gnd _493_ _497_ NAND2X1
XINVX1_150 w_C[18] _501_ vdd gnd INVX1
XOR2X2_20 _502_ i_add1[18] vdd gnd i_add2[18] OR2X2
XNAND2X1_48 vdd _503_ gnd i_add2[18] i_add1[18] NAND2X1
XNAND3X1_58 _503_ vdd gnd _501_ _502_ _504_ NAND3X1
XNOR2X1_67 vdd i_add1[18] gnd _498_ i_add2[18] NOR2X1
XAND2X2_47 vdd gnd i_add2[18] i_add1[18] _499_ AND2X2
XOAI21X1_39 gnd vdd _498_ _499_ _500_ w_C[18] OAI21X1
XNAND2X1_49 vdd _399_[18] gnd _500_ _504_ NAND2X1
XINVX1_151 w_C[19] _508_ vdd gnd INVX1
XOR2X2_21 _509_ i_add1[19] vdd gnd i_add2[19] OR2X2
XNAND2X1_50 vdd _510_ gnd i_add2[19] i_add1[19] NAND2X1
XNAND3X1_59 _510_ vdd gnd _508_ _509_ _511_ NAND3X1
XNOR2X1_68 vdd i_add1[19] gnd _505_ i_add2[19] NOR2X1
XAND2X2_48 vdd gnd i_add2[19] i_add1[19] _506_ AND2X2
XOAI21X1_40 gnd vdd _505_ _506_ _507_ w_C[19] OAI21X1
XNAND2X1_51 vdd _399_[19] gnd _507_ _511_ NAND2X1
XINVX1_152 w_C[20] _515_ vdd gnd INVX1
XOR2X2_22 _516_ i_add1[20] vdd gnd i_add2[20] OR2X2
XNAND2X1_52 vdd _517_ gnd i_add2[20] i_add1[20] NAND2X1
XNAND3X1_60 _517_ vdd gnd _515_ _516_ _518_ NAND3X1
XNOR2X1_69 vdd i_add1[20] gnd _512_ i_add2[20] NOR2X1
XAND2X2_49 vdd gnd i_add2[20] i_add1[20] _513_ AND2X2
XOAI21X1_41 gnd vdd _512_ _513_ _514_ w_C[20] OAI21X1
XNAND2X1_53 vdd _399_[20] gnd _514_ _518_ NAND2X1
XINVX1_153 w_C[21] _522_ vdd gnd INVX1
XOR2X2_23 _523_ i_add1[21] vdd gnd i_add2[21] OR2X2
XNAND2X1_54 vdd _524_ gnd i_add2[21] i_add1[21] NAND2X1
XNAND3X1_61 _524_ vdd gnd _522_ _523_ _525_ NAND3X1
XNOR2X1_70 vdd i_add1[21] gnd _519_ i_add2[21] NOR2X1
XAND2X2_50 vdd gnd i_add2[21] i_add1[21] _520_ AND2X2
XOAI21X1_42 gnd vdd _519_ _520_ _521_ w_C[21] OAI21X1
XNAND2X1_55 vdd _399_[21] gnd _521_ _525_ NAND2X1
XINVX1_154 w_C[22] _529_ vdd gnd INVX1
XOR2X2_24 _530_ i_add1[22] vdd gnd i_add2[22] OR2X2
XNAND2X1_56 vdd _531_ gnd i_add2[22] i_add1[22] NAND2X1
XNAND3X1_62 _531_ vdd gnd _529_ _530_ _532_ NAND3X1
XNOR2X1_71 vdd i_add1[22] gnd _526_ i_add2[22] NOR2X1
XAND2X2_51 vdd gnd i_add2[22] i_add1[22] _527_ AND2X2
XOAI21X1_43 gnd vdd _526_ _527_ _528_ w_C[22] OAI21X1
XNAND2X1_57 vdd _399_[22] gnd _528_ _532_ NAND2X1
XINVX1_155 w_C[23] _536_ vdd gnd INVX1
XOR2X2_25 _537_ i_add1[23] vdd gnd i_add2[23] OR2X2
XNAND2X1_58 vdd _538_ gnd i_add2[23] i_add1[23] NAND2X1
XNAND3X1_63 _538_ vdd gnd _536_ _537_ _539_ NAND3X1
XNOR2X1_72 vdd i_add1[23] gnd _533_ i_add2[23] NOR2X1
XAND2X2_52 vdd gnd i_add2[23] i_add1[23] _534_ AND2X2
XOAI21X1_44 gnd vdd _533_ _534_ _535_ w_C[23] OAI21X1
XNAND2X1_59 vdd _399_[23] gnd _535_ _539_ NAND2X1
XINVX1_156 w_C[24] _543_ vdd gnd INVX1
XOR2X2_26 _544_ i_add1[24] vdd gnd i_add2[24] OR2X2
XNAND2X1_60 vdd _545_ gnd i_add2[24] i_add1[24] NAND2X1
XNAND3X1_64 _545_ vdd gnd _543_ _544_ _546_ NAND3X1
XNOR2X1_73 vdd i_add1[24] gnd _540_ i_add2[24] NOR2X1
XAND2X2_53 vdd gnd i_add2[24] i_add1[24] _541_ AND2X2
XOAI21X1_45 gnd vdd _540_ _541_ _542_ w_C[24] OAI21X1
XNAND2X1_61 vdd _399_[24] gnd _542_ _546_ NAND2X1
XINVX1_157 w_C[25] _550_ vdd gnd INVX1
XOR2X2_27 _551_ i_add1[25] vdd gnd i_add2[25] OR2X2
XNAND2X1_62 vdd _552_ gnd i_add2[25] i_add1[25] NAND2X1
XNAND3X1_65 _552_ vdd gnd _550_ _551_ _553_ NAND3X1
XNOR2X1_74 vdd i_add1[25] gnd _547_ i_add2[25] NOR2X1
XAND2X2_54 vdd gnd i_add2[25] i_add1[25] _548_ AND2X2
XOAI21X1_46 gnd vdd _547_ _548_ _549_ w_C[25] OAI21X1
XNAND2X1_63 vdd _399_[25] gnd _549_ _553_ NAND2X1
XINVX1_158 w_C[26] _557_ vdd gnd INVX1
XOR2X2_28 _558_ i_add1[26] vdd gnd i_add2[26] OR2X2
XNAND2X1_64 vdd _559_ gnd i_add2[26] i_add1[26] NAND2X1
XNAND3X1_66 _559_ vdd gnd _557_ _558_ _560_ NAND3X1
XNOR2X1_75 vdd i_add1[26] gnd _554_ i_add2[26] NOR2X1
XAND2X2_55 vdd gnd i_add2[26] i_add1[26] _555_ AND2X2
XOAI21X1_47 gnd vdd _554_ _555_ _556_ w_C[26] OAI21X1
XNAND2X1_65 vdd _399_[26] gnd _556_ _560_ NAND2X1
XINVX1_159 w_C[27] _564_ vdd gnd INVX1
XOR2X2_29 _565_ i_add1[27] vdd gnd i_add2[27] OR2X2
XNAND2X1_66 vdd _566_ gnd i_add2[27] i_add1[27] NAND2X1
XNAND3X1_67 _566_ vdd gnd _564_ _565_ _567_ NAND3X1
XNOR2X1_76 vdd i_add1[27] gnd _561_ i_add2[27] NOR2X1
XAND2X2_56 vdd gnd i_add2[27] i_add1[27] _562_ AND2X2
XOAI21X1_48 gnd vdd _561_ _562_ _563_ w_C[27] OAI21X1
XNAND2X1_67 vdd _399_[27] gnd _563_ _567_ NAND2X1
XINVX1_160 w_C[28] _571_ vdd gnd INVX1
XOR2X2_30 _572_ i_add1[28] vdd gnd i_add2[28] OR2X2
XNAND2X1_68 vdd _573_ gnd i_add2[28] i_add1[28] NAND2X1
XNAND3X1_68 _573_ vdd gnd _571_ _572_ _574_ NAND3X1
XNOR2X1_77 vdd i_add1[28] gnd _568_ i_add2[28] NOR2X1
XAND2X2_57 vdd gnd i_add2[28] i_add1[28] _569_ AND2X2
XOAI21X1_49 gnd vdd _568_ _569_ _570_ w_C[28] OAI21X1
XNAND2X1_69 vdd _399_[28] gnd _570_ _574_ NAND2X1
XINVX1_161 w_C[29] _578_ vdd gnd INVX1
XOR2X2_31 _579_ i_add1[29] vdd gnd i_add2[29] OR2X2
XNAND2X1_70 vdd _580_ gnd i_add2[29] i_add1[29] NAND2X1