*SPICE netlist created from BLIF module cla_42bit by blif2BSpice
.include /usr/local/share/qflow/tech/osu035/osu035_stdcells.sp
.subckt cla_42bit vdd gnd i_add1[0] i_add1[1] i_add1[2] i_add1[3] i_add1[4] i_add1[5] i_add1[6] i_add1[7] i_add1[8] i_add1[9] i_add1[10] i_add1[11] i_add1[12] i_add1[13] i_add1[14] i_add1[15] i_add1[16] i_add1[17] i_add1[18] i_add1[19] i_add1[20] i_add1[21] i_add1[22] i_add1[23] i_add1[24] i_add1[25] i_add1[26] i_add1[27] i_add1[28] i_add1[29] i_add1[30] i_add1[31] i_add1[32] i_add1[33] i_add1[34] i_add1[35] i_add1[36] i_add1[37] i_add1[38] i_add1[39] i_add1[40] i_add1[41] i_add2[0] i_add2[1] i_add2[2] i_add2[3] i_add2[4] i_add2[5] i_add2[6] i_add2[7] i_add2[8] i_add2[9] i_add2[10] i_add2[11] i_add2[12] i_add2[13] i_add2[14] i_add2[15] i_add2[16] i_add2[17] i_add2[18] i_add2[19] i_add2[20] i_add2[21] i_add2[22] i_add2[23] i_add2[24] i_add2[25] i_add2[26] i_add2[27] i_add2[28] i_add2[29] i_add2[30] i_add2[31] i_add2[32] i_add2[33] i_add2[34] i_add2[35] i_add2[36] i_add2[37] i_add2[38] i_add2[39] i_add2[40] i_add2[41] o_result[0] o_result[1] o_result[2] o_result[3] o_result[4] o_result[5] o_result[6] o_result[7] o_result[8] o_result[9] o_result[10] o_result[11] o_result[12] o_result[13] o_result[14] o_result[15] o_result[16] o_result[17] o_result[18] o_result[19] o_result[20] o_result[21] o_result[22] o_result[23] o_result[24] o_result[25] o_result[26] o_result[27] o_result[28] o_result[29] o_result[30] o_result[31] o_result[32] o_result[33] o_result[34] o_result[35] o_result[36] o_result[37] o_result[38] o_result[39] o_result[40] o_result[41] o_result[42] 
XOAI21X1_1 gnd vdd _353_ _354_ _355_ w_C[19] OAI21X1
XNAND2X1_1 vdd _247_[19] gnd _355_ _359_ NAND2X1
XINVX1_1 w_C[20] _363_ vdd gnd INVX1
XOR2X2_1 _364_ i_add1[20] vdd gnd i_add2[20] OR2X2
XNAND2X1_2 vdd _365_ gnd i_add2[20] i_add1[20] NAND2X1
XNAND3X1_1 _365_ vdd gnd _363_ _364_ _366_ NAND3X1
XNOR2X1_1 vdd i_add1[20] gnd _360_ i_add2[20] NOR2X1
XAND2X2_1 vdd gnd i_add2[20] i_add1[20] _361_ AND2X2
XOAI21X1_2 gnd vdd _360_ _361_ _362_ w_C[20] OAI21X1
XNAND2X1_3 vdd _247_[20] gnd _362_ _366_ NAND2X1
XINVX1_2 w_C[21] _370_ vdd gnd INVX1
XOR2X2_2 _371_ i_add1[21] vdd gnd i_add2[21] OR2X2
XNAND2X1_4 vdd _372_ gnd i_add2[21] i_add1[21] NAND2X1
XNAND3X1_2 _372_ vdd gnd _370_ _371_ _373_ NAND3X1
XNOR2X1_2 vdd i_add1[21] gnd _367_ i_add2[21] NOR2X1
XAND2X2_2 vdd gnd i_add2[21] i_add1[21] _368_ AND2X2
XOAI21X1_3 gnd vdd _367_ _368_ _369_ w_C[21] OAI21X1
XNAND2X1_5 vdd _247_[21] gnd _369_ _373_ NAND2X1
XINVX1_3 w_C[22] _377_ vdd gnd INVX1
XOR2X2_3 _378_ i_add1[22] vdd gnd i_add2[22] OR2X2
XNAND2X1_6 vdd _379_ gnd i_add2[22] i_add1[22] NAND2X1
XNAND3X1_3 _379_ vdd gnd _377_ _378_ _380_ NAND3X1
XNOR2X1_3 vdd i_add1[22] gnd _374_ i_add2[22] NOR2X1
XAND2X2_3 vdd gnd i_add2[22] i_add1[22] _375_ AND2X2
XOAI21X1_4 gnd vdd _374_ _375_ _376_ w_C[22] OAI21X1
XNAND2X1_7 vdd _247_[22] gnd _376_ _380_ NAND2X1
XINVX1_4 w_C[23] _384_ vdd gnd INVX1
XOR2X2_4 _385_ i_add1[23] vdd gnd i_add2[23] OR2X2
XNAND2X1_8 vdd _386_ gnd i_add2[23] i_add1[23] NAND2X1
XNAND3X1_4 _386_ vdd gnd _384_ _385_ _387_ NAND3X1
XNOR2X1_4 vdd i_add1[23] gnd _381_ i_add2[23] NOR2X1
XAND2X2_4 vdd gnd i_add2[23] i_add1[23] _382_ AND2X2
XOAI21X1_5 gnd vdd _381_ _382_ _383_ w_C[23] OAI21X1
XNAND2X1_9 vdd _247_[23] gnd _383_ _387_ NAND2X1
XINVX1_5 w_C[24] _391_ vdd gnd INVX1
XOR2X2_5 _392_ i_add1[24] vdd gnd i_add2[24] OR2X2
XNAND2X1_10 vdd _393_ gnd i_add2[24] i_add1[24] NAND2X1
XNAND3X1_5 _393_ vdd gnd _391_ _392_ _394_ NAND3X1
XNOR2X1_5 vdd i_add1[24] gnd _388_ i_add2[24] NOR2X1
XAND2X2_5 vdd gnd i_add2[24] i_add1[24] _389_ AND2X2
XOAI21X1_6 gnd vdd _388_ _389_ _390_ w_C[24] OAI21X1
XNAND2X1_11 vdd _247_[24] gnd _390_ _394_ NAND2X1
XINVX1_6 w_C[25] _398_ vdd gnd INVX1
XOR2X2_6 _399_ i_add1[25] vdd gnd i_add2[25] OR2X2
XNAND2X1_12 vdd _400_ gnd i_add2[25] i_add1[25] NAND2X1
XNAND3X1_6 _400_ vdd gnd _398_ _399_ _401_ NAND3X1
XNOR2X1_6 vdd i_add1[25] gnd _395_ i_add2[25] NOR2X1
XAND2X2_6 vdd gnd i_add2[25] i_add1[25] _396_ AND2X2
XOAI21X1_7 gnd vdd _395_ _396_ _397_ w_C[25] OAI21X1
XNAND2X1_13 vdd _247_[25] gnd _397_ _401_ NAND2X1
XINVX1_7 w_C[26] _405_ vdd gnd INVX1
XOR2X2_7 _406_ i_add1[26] vdd gnd i_add2[26] OR2X2
XNAND2X1_14 vdd _407_ gnd i_add2[26] i_add1[26] NAND2X1
XNAND3X1_7 _407_ vdd gnd _405_ _406_ _408_ NAND3X1
XNOR2X1_7 vdd i_add1[26] gnd _402_ i_add2[26] NOR2X1
XAND2X2_7 vdd gnd i_add2[26] i_add1[26] _403_ AND2X2
XOAI21X1_8 gnd vdd _402_ _403_ _404_ w_C[26] OAI21X1
XNAND2X1_15 vdd _247_[26] gnd _404_ _408_ NAND2X1
XINVX1_8 w_C[27] _412_ vdd gnd INVX1
XOR2X2_8 _413_ i_add1[27] vdd gnd i_add2[27] OR2X2
XNAND2X1_16 vdd _414_ gnd i_add2[27] i_add1[27] NAND2X1
XNAND3X1_8 _414_ vdd gnd _412_ _413_ _415_ NAND3X1
XNOR2X1_8 vdd i_add1[27] gnd _409_ i_add2[27] NOR2X1
XAND2X2_8 vdd gnd i_add2[27] i_add1[27] _410_ AND2X2
XOAI21X1_9 gnd vdd _409_ _410_ _411_ w_C[27] OAI21X1
XNAND2X1_17 vdd _247_[27] gnd _411_ _415_ NAND2X1
XINVX1_9 w_C[28] _419_ vdd gnd INVX1
XOR2X2_9 _420_ i_add1[28] vdd gnd i_add2[28] OR2X2
XNAND2X1_18 vdd _421_ gnd i_add2[28] i_add1[28] NAND2X1
XNAND3X1_9 _421_ vdd gnd _419_ _420_ _422_ NAND3X1
XNOR2X1_9 vdd i_add1[28] gnd _416_ i_add2[28] NOR2X1
XAND2X2_9 vdd gnd i_add2[28] i_add1[28] _417_ AND2X2
XOAI21X1_10 gnd vdd _416_ _417_ _418_ w_C[28] OAI21X1
XNAND2X1_19 vdd _247_[28] gnd _418_ _422_ NAND2X1
XINVX1_10 w_C[29] _426_ vdd gnd INVX1
XOR2X2_10 _427_ i_add1[29] vdd gnd i_add2[29] OR2X2
XNAND2X1_20 vdd _428_ gnd i_add2[29] i_add1[29] NAND2X1
XNAND3X1_10 _428_ vdd gnd _426_ _427_ _429_ NAND3X1
XNOR2X1_10 vdd i_add1[29] gnd _423_ i_add2[29] NOR2X1
XAND2X2_10 vdd gnd i_add2[29] i_add1[29] _424_ AND2X2
XOAI21X1_11 gnd vdd _423_ _424_ _425_ w_C[29] OAI21X1
XNAND2X1_21 vdd _247_[29] gnd _425_ _429_ NAND2X1
XINVX1_11 w_C[30] _433_ vdd gnd INVX1
XOR2X2_11 _434_ i_add1[30] vdd gnd i_add2[30] OR2X2
XNAND2X1_22 vdd _435_ gnd i_add2[30] i_add1[30] NAND2X1
XNAND3X1_11 _435_ vdd gnd _433_ _434_ _436_ NAND3X1
XNOR2X1_11 vdd i_add1[30] gnd _430_ i_add2[30] NOR2X1
XAND2X2_11 vdd gnd i_add2[30] i_add1[30] _431_ AND2X2
XOAI21X1_12 gnd vdd _430_ _431_ _432_ w_C[30] OAI21X1
XNAND2X1_23 vdd _247_[30] gnd _432_ _436_ NAND2X1
XINVX1_12 w_C[31] _440_ vdd gnd INVX1
XOR2X2_12 _441_ i_add1[31] vdd gnd i_add2[31] OR2X2
XNAND2X1_24 vdd _442_ gnd i_add2[31] i_add1[31] NAND2X1
XNAND3X1_12 _442_ vdd gnd _440_ _441_ _443_ NAND3X1
XNOR2X1_12 vdd i_add1[31] gnd _437_ i_add2[31] NOR2X1
XAND2X2_12 vdd gnd i_add2[31] i_add1[31] _438_ AND2X2
XOAI21X1_13 gnd vdd _437_ _438_ _439_ w_C[31] OAI21X1
XNAND2X1_25 vdd _247_[31] gnd _439_ _443_ NAND2X1
XINVX1_13 w_C[32] _447_ vdd gnd INVX1
XOR2X2_13 _448_ i_add1[32] vdd gnd i_add2[32] OR2X2
XNAND2X1_26 vdd _449_ gnd i_add2[32] i_add1[32] NAND2X1
XNAND3X1_13 _449_ vdd gnd _447_ _448_ _450_ NAND3X1
XNOR2X1_13 vdd i_add1[32] gnd _444_ i_add2[32] NOR2X1
XAND2X2_13 vdd gnd i_add2[32] i_add1[32] _445_ AND2X2
XOAI21X1_14 gnd vdd _444_ _445_ _446_ w_C[32] OAI21X1
XNAND2X1_27 vdd _247_[32] gnd _446_ _450_ NAND2X1
XINVX1_14 w_C[33] _454_ vdd gnd INVX1
XOR2X2_14 _455_ i_add1[33] vdd gnd i_add2[33] OR2X2
XNAND2X1_28 vdd _456_ gnd i_add2[33] i_add1[33] NAND2X1
XNAND3X1_14 _456_ vdd gnd _454_ _455_ _457_ NAND3X1
XNOR2X1_14 vdd i_add1[33] gnd _451_ i_add2[33] NOR2X1
XAND2X2_14 vdd gnd i_add2[33] i_add1[33] _452_ AND2X2
XOAI21X1_15 gnd vdd _451_ _452_ _453_ w_C[33] OAI21X1
XNAND2X1_29 vdd _247_[33] gnd _453_ _457_ NAND2X1
XINVX1_15 w_C[34] _461_ vdd gnd INVX1
XOR2X2_15 _462_ i_add1[34] vdd gnd i_add2[34] OR2X2
XNAND2X1_30 vdd _463_ gnd i_add2[34] i_add1[34] NAND2X1
XNAND3X1_15 _463_ vdd gnd _461_ _462_ _464_ NAND3X1
XNOR2X1_15 vdd i_add1[34] gnd _458_ i_add2[34] NOR2X1
XAND2X2_15 vdd gnd i_add2[34] i_add1[34] _459_ AND2X2
XOAI21X1_16 gnd vdd _458_ _459_ _460_ w_C[34] OAI21X1
XNAND2X1_31 vdd _247_[34] gnd _460_ _464_ NAND2X1
XINVX1_16 w_C[35] _468_ vdd gnd INVX1
XOR2X2_16 _469_ i_add1[35] vdd gnd i_add2[35] OR2X2
XNAND2X1_32 vdd _470_ gnd i_add2[35] i_add1[35] NAND2X1
XNAND3X1_16 _470_ vdd gnd _468_ _469_ _471_ NAND3X1
XNOR2X1_16 vdd i_add1[35] gnd _465_ i_add2[35] NOR2X1
XAND2X2_16 vdd gnd i_add2[35] i_add1[35] _466_ AND2X2
XOAI21X1_17 gnd vdd _465_ _466_ _467_ w_C[35] OAI21X1
XNAND2X1_33 vdd _247_[35] gnd _467_ _471_ NAND2X1
XINVX1_17 w_C[36] _475_ vdd gnd INVX1
XOR2X2_17 _476_ i_add1[36] vdd gnd i_add2[36] OR2X2
XNAND2X1_34 vdd _477_ gnd i_add2[36] i_add1[36] NAND2X1
XNAND3X1_17 _477_ vdd gnd _475_ _476_ _478_ NAND3X1
XNOR2X1_17 vdd i_add1[36] gnd _472_ i_add2[36] NOR2X1
XAND2X2_17 vdd gnd i_add2[36] i_add1[36] _473_ AND2X2
XOAI21X1_18 gnd vdd _472_ _473_ _474_ w_C[36] OAI21X1
XNAND2X1_35 vdd _247_[36] gnd _474_ _478_ NAND2X1
XINVX1_18 w_C[37] _482_ vdd gnd INVX1
XOR2X2_18 _483_ i_add1[37] vdd gnd i_add2[37] OR2X2
XNAND2X1_36 vdd _484_ gnd i_add2[37] i_add1[37] NAND2X1
XNAND3X1_18 _484_ vdd gnd _482_ _483_ _485_ NAND3X1
XNOR2X1_18 vdd i_add1[37] gnd _479_ i_add2[37] NOR2X1
XAND2X2_18 vdd gnd i_add2[37] i_add1[37] _480_ AND2X2
XOAI21X1_19 gnd vdd _479_ _480_ _481_ w_C[37] OAI21X1
XNAND2X1_37 vdd _247_[37] gnd _481_ _485_ NAND2X1
XINVX1_19 w_C[38] _489_ vdd gnd INVX1
XOR2X2_19 _490_ i_add1[38] vdd gnd i_add2[38] OR2X2
XNAND2X1_38 vdd _491_ gnd i_add2[38] i_add1[38] NAND2X1
XNAND3X1_19 _491_ vdd gnd _489_ _490_ _492_ NAND3X1
XNOR2X1_19 vdd i_add1[38] gnd _486_ i_add2[38] NOR2X1
XAND2X2_19 vdd gnd i_add2[38] i_add1[38] _487_ AND2X2
XOAI21X1_20 gnd vdd _486_ _487_ _488_ w_C[38] OAI21X1
XNAND2X1_39 vdd _247_[38] gnd _488_ _492_ NAND2X1
XINVX1_20 w_C[39] _496_ vdd gnd INVX1
XOR2X2_20 _497_ i_add1[39] vdd gnd i_add2[39] OR2X2
XNAND2X1_40 vdd _498_ gnd i_add2[39] i_add1[39] NAND2X1
XNAND3X1_20 _498_ vdd gnd _496_ _497_ _499_ NAND3X1
XNOR2X1_20 vdd i_add1[39] gnd _493_ i_add2[39] NOR2X1
XAND2X2_20 vdd gnd i_add2[39] i_add1[39] _494_ AND2X2
XOAI21X1_21 gnd vdd _493_ _494_ _495_ w_C[39] OAI21X1
XNAND2X1_41 vdd _247_[39] gnd _495_ _499_ NAND2X1
XINVX1_21 w_C[40] _503_ vdd gnd INVX1
XOR2X2_21 _504_ i_add1[40] vdd gnd i_add2[40] OR2X2
XNAND2X1_42 vdd _505_ gnd i_add2[40] i_add1[40] NAND2X1
XNAND3X1_21 _505_ vdd gnd _503_ _504_ _506_ NAND3X1
XNOR2X1_21 vdd i_add1[40] gnd _500_ i_add2[40] NOR2X1
XAND2X2_21 vdd gnd i_add2[40] i_add1[40] _501_ AND2X2
XOAI21X1_22 gnd vdd _500_ _501_ _502_ w_C[40] OAI21X1
XNAND2X1_43 vdd _247_[40] gnd _502_ _506_ NAND2X1
XINVX1_22 w_C[41] _510_ vdd gnd INVX1
XOR2X2_22 _511_ i_add1[41] vdd gnd i_add2[41] OR2X2
XNAND2X1_44 vdd _512_ gnd i_add2[41] i_add1[41] NAND2X1
XNAND3X1_22 _512_ vdd gnd _510_ _511_ _513_ NAND3X1
XNOR2X1_22 vdd i_add1[41] gnd _507_ i_add2[41] NOR2X1
XAND2X2_22 vdd gnd i_add2[41] i_add1[41] _508_ AND2X2
XOAI21X1_23 gnd vdd _507_ _508_ _509_ w_C[41] OAI21X1
XNAND2X1_45 vdd _247_[41] gnd _509_ _513_ NAND2X1
XINVX1_23 gnd _517_ vdd gnd INVX1
XOR2X2_23 _518_ i_add1[0] vdd gnd i_add2[0] OR2X2
XNAND2X1_46 vdd _519_ gnd i_add2[0] i_add1[0] NAND2X1
XNAND3X1_23 _519_ vdd gnd _517_ _518_ _520_ NAND3X1
XNOR2X1_23 vdd i_add1[0] gnd _514_ i_add2[0] NOR2X1
XAND2X2_23 vdd gnd i_add2[0] i_add1[0] _515_ AND2X2
XOAI21X1_24 gnd vdd _514_ _515_ _516_ gnd OAI21X1
XNAND2X1_47 vdd _247_[0] gnd _516_ _520_ NAND2X1
XINVX1_24 w_C[1] _524_ vdd gnd INVX1
XOR2X2_24 _525_ i_add1[1] vdd gnd i_add2[1] OR2X2
XNAND2X1_48 vdd _526_ gnd i_add2[1] i_add1[1] NAND2X1
XNAND3X1_24 _526_ vdd gnd _524_ _525_ _527_ NAND3X1
XNOR2X1_24 vdd i_add1[1] gnd _521_ i_add2[1] NOR2X1
XAND2X2_24 vdd gnd i_add2[1] i_add1[1] _522_ AND2X2
XOAI21X1_25 gnd vdd _521_ _522_ _523_ w_C[1] OAI21X1
XNAND2X1_49 vdd _247_[1] gnd _523_ _527_ NAND2X1
XINVX1_25 w_C[2] _531_ vdd gnd INVX1
XOR2X2_25 _532_ i_add1[2] vdd gnd i_add2[2] OR2X2
XNAND2X1_50 vdd _533_ gnd i_add2[2] i_add1[2] NAND2X1
XNAND3X1_25 _533_ vdd gnd _531_ _532_ _534_ NAND3X1
XNOR2X1_25 vdd i_add1[2] gnd _528_ i_add2[2] NOR2X1
XAND2X2_25 vdd gnd i_add2[2] i_add1[2] _529_ AND2X2
XOAI21X1_26 gnd vdd _528_ _529_ _530_ w_C[2] OAI21X1
XNAND2X1_51 vdd _247_[2] gnd _530_ _534_ NAND2X1
XINVX1_26 w_C[3] _538_ vdd gnd INVX1
XOR2X2_26 _539_ i_add1[3] vdd gnd i_add2[3] OR2X2
XNAND2X1_52 vdd _540_ gnd i_add2[3] i_add1[3] NAND2X1
XNAND3X1_26 _540_ vdd gnd _538_ _539_ _541_ NAND3X1
XNOR2X1_26 vdd i_add1[3] gnd _535_ i_add2[3] NOR2X1
XAND2X2_26 vdd gnd i_add2[3] i_add1[3] _536_ AND2X2
XOAI21X1_27 gnd vdd _535_ _536_ _537_ w_C[3] OAI21X1
XNAND2X1_53 vdd _247_[3] gnd _537_ _541_ NAND2X1
XNAND2X1_54 vdd _0_ gnd i_add2[0] i_add1[0] NAND2X1
XINVX1_27 _0_ w_C[1] vdd gnd INVX1
XNOR2X1_27 vdd i_add1[1] gnd _1_ i_add2[1] NOR2X1
XAOI22X1_1 gnd vdd i_add2[1] i_add1[1] _2_ i_add2[0] i_add1[0] AOI22X1
XNOR2X1_28 vdd _2_ gnd w_C[2] _1_ NOR2X1
XINVX1_28 i_add2[2] _3_ vdd gnd INVX1
XINVX1_29 i_add1[2] _4_ vdd gnd INVX1
XNAND2X1_55 vdd _5_ gnd _3_ _4_ NAND2X1
XNAND2X1_56 vdd _6_ gnd i_add2[2] i_add1[2] NAND2X1
XOAI21X1_28 gnd vdd _1_ _2_ _7_ _6_ OAI21X1
XAND2X2_27 vdd gnd _7_ _5_ w_C[3] AND2X2
XNAND2X1_57 vdd _8_ gnd i_add2[3] i_add1[3] NAND2X1
XOR2X2_27 _9_ i_add1[3] vdd gnd i_add2[3] OR2X2
XNAND3X1_27 _9_ vdd gnd _5_ _7_ _10_ NAND3X1
XNAND2X1_58 vdd w_C[4] gnd _8_ _10_ NAND2X1
XNAND2X1_59 vdd _11_ gnd i_add2[4] i_add1[4] NAND2X1
XNAND3X1_28 _11_ vdd gnd _8_ _10_ _12_ NAND3X1
XOAI21X1_29 gnd vdd i_add2[4] i_add1[4] _13_ _12_ OAI21X1
XINVX1_30 _13_ w_C[5] vdd gnd INVX1
XINVX1_31 i_add2[5] _14_ vdd gnd INVX1
XINVX1_32 i_add1[5] _15_ vdd gnd INVX1
XNOR2X1_29 vdd i_add1[4] gnd _16_ i_add2[4] NOR2X1
XINVX1_33 _16_ _17_ vdd gnd INVX1
XNOR2X1_30 vdd i_add1[5] gnd _18_ i_add2[5] NOR2X1
XINVX1_34 _18_ _19_ vdd gnd INVX1
XNAND3X1_29 _19_ vdd gnd _17_ _12_ _20_ NAND3X1
XOAI21X1_30 gnd vdd _14_ _15_ w_C[6] _20_ OAI21X1
XNOR2X1_31 vdd _15_ gnd _21_ _14_ NOR2X1
XINVX1_35 _21_ _22_ vdd gnd INVX1
XAND2X2_28 vdd gnd i_add2[6] i_add1[6] _23_ AND2X2
XINVX1_36 _23_ _24_ vdd gnd INVX1
XNAND3X1_30 _24_ vdd gnd _22_ _20_ _25_ NAND3X1
XOAI21X1_31 gnd vdd i_add2[6] i_add1[6] _26_ _25_ OAI21X1
XINVX1_37 _26_ w_C[7] vdd gnd INVX1
XINVX1_38 i_add2[7] _27_ vdd gnd INVX1
XINVX1_39 i_add1[7] _28_ vdd gnd INVX1
XNOR2X1_32 vdd i_add1[6] gnd _29_ i_add2[6] NOR2X1
XINVX1_40 _29_ _30_ vdd gnd INVX1
XNOR2X1_33 vdd i_add1[7] gnd _31_ i_add2[7] NOR2X1
XINVX1_41 _31_ _32_ vdd gnd INVX1
XNAND3X1_31 _32_ vdd gnd _30_ _25_ _33_ NAND3X1
XOAI21X1_32 gnd vdd _27_ _28_ w_C[8] _33_ OAI21X1
XNOR2X1_34 vdd _28_ gnd _34_ _27_ NOR2X1
XINVX1_42 _34_ _35_ vdd gnd INVX1
XAND2X2_29 vdd gnd i_add2[8] i_add1[8] _36_ AND2X2
XINVX1_43 _36_ _37_ vdd gnd INVX1
XNAND3X1_32 _37_ vdd gnd _35_ _33_ _38_ NAND3X1
XOAI21X1_33 gnd vdd i_add2[8] i_add1[8] _39_ _38_ OAI21X1
XINVX1_44 _39_ w_C[9] vdd gnd INVX1
XINVX1_45 i_add2[9] _40_ vdd gnd INVX1
XINVX1_46 i_add1[9] _41_ vdd gnd INVX1
XNOR2X1_35 vdd i_add1[8] gnd _42_ i_add2[8] NOR2X1
XINVX1_47 _42_ _43_ vdd gnd INVX1
XNOR2X1_36 vdd i_add1[9] gnd _44_ i_add2[9] NOR2X1
XINVX1_48 _44_ _45_ vdd gnd INVX1
XNAND3X1_33 _45_ vdd gnd _43_ _38_ _46_ NAND3X1
XOAI21X1_34 gnd vdd _40_ _41_ w_C[10] _46_ OAI21X1
XNOR2X1_37 vdd _41_ gnd _47_ _40_ NOR2X1
XINVX1_49 _47_ _48_ vdd gnd INVX1
XAND2X2_30 vdd gnd i_add2[10] i_add1[10] _49_ AND2X2
XINVX1_50 _49_ _50_ vdd gnd INVX1
XNAND3X1_34 _50_ vdd gnd _48_ _46_ _51_ NAND3X1
XOAI21X1_35 gnd vdd i_add2[10] i_add1[10] _52_ _51_ OAI21X1
XINVX1_51 _52_ w_C[11] vdd gnd INVX1
XINVX1_52 i_add2[11] _53_ vdd gnd INVX1
XINVX1_53 i_add1[11] _54_ vdd gnd INVX1
XNOR2X1_38 vdd i_add1[10] gnd _55_ i_add2[10] NOR2X1
XINVX1_54 _55_ _56_ vdd gnd INVX1
XNOR2X1_39 vdd i_add1[11] gnd _57_ i_add2[11] NOR2X1
XINVX1_55 _57_ _58_ vdd gnd INVX1
XNAND3X1_35 _58_ vdd gnd _56_ _51_ _59_ NAND3X1
XOAI21X1_36 gnd vdd _53_ _54_ w_C[12] _59_ OAI21X1
XNOR2X1_40 vdd _54_ gnd _60_ _53_ NOR2X1
XINVX1_56 _60_ _61_ vdd gnd INVX1
XAND2X2_31 vdd gnd i_add2[12] i_add1[12] _62_ AND2X2
XINVX1_57 _62_ _63_ vdd gnd INVX1
XNAND3X1_36 _63_ vdd gnd _61_ _59_ _64_ NAND3X1
XOAI21X1_37 gnd vdd i_add2[12] i_add1[12] _65_ _64_ OAI21X1
XINVX1_58 _65_ w_C[13] vdd gnd INVX1
XINVX1_59 i_add2[13] _66_ vdd gnd INVX1
XINVX1_60 i_add1[13] _67_ vdd gnd INVX1
XNOR2X1_41 vdd _67_ gnd _68_ _66_ NOR2X1
XINVX1_61 _68_ _69_ vdd gnd INVX1
XNOR2X1_42 vdd i_add1[12] gnd _70_ i_add2[12] NOR2X1
XINVX1_62 _70_ _71_ vdd gnd INVX1
XNOR2X1_43 vdd i_add1[13] gnd _72_ i_add2[13] NOR2X1
XINVX1_63 _72_ _73_ vdd gnd INVX1
XNAND3X1_37 _73_ vdd gnd _71_ _64_ _74_ NAND3X1
XAND2X2_32 vdd gnd _74_ _69_ _75_ AND2X2
XINVX1_64 _75_ w_C[14] vdd gnd INVX1
XAND2X2_33 vdd gnd i_add2[14] i_add1[14] _76_ AND2X2
XINVX1_65 _76_ _77_ vdd gnd INVX1
XNAND3X1_38 _77_ vdd gnd _69_ _74_ _78_ NAND3X1
XOAI21X1_38 gnd vdd i_add2[14] i_add1[14] _79_ _78_ OAI21X1
XINVX1_66 _79_ w_C[15] vdd gnd INVX1
XINVX1_67 i_add2[15] _80_ vdd gnd INVX1
XINVX1_68 i_add1[15] _81_ vdd gnd INVX1
XNOR2X1_44 vdd _81_ gnd _82_ _80_ NOR2X1
XINVX1_69 _82_ _83_ vdd gnd INVX1
XNOR2X1_45 vdd i_add1[14] gnd _84_ i_add2[14] NOR2X1
XINVX1_70 _84_ _85_ vdd gnd INVX1
XNOR2X1_46 vdd i_add1[15] gnd _86_ i_add2[15] NOR2X1
XINVX1_71 _86_ _87_ vdd gnd INVX1
XNAND3X1_39 _87_ vdd gnd _85_ _78_ _88_ NAND3X1
XAND2X2_34 vdd gnd _88_ _83_ _89_ AND2X2
XINVX1_72 _89_ w_C[16] vdd gnd INVX1
XAND2X2_35 vdd gnd i_add2[16] i_add1[16] _90_ AND2X2
XINVX1_73 _90_ _91_ vdd gnd INVX1
XNAND3X1_40 _91_ vdd gnd _83_ _88_ _92_ NAND3X1
XOAI21X1_39 gnd vdd i_add2[16] i_add1[16] _93_ _92_ OAI21X1
XINVX1_74 _93_ w_C[17] vdd gnd INVX1
XINVX1_75 i_add2[17] _94_ vdd gnd INVX1
XINVX1_76 i_add1[17] _95_ vdd gnd INVX1
XNOR2X1_47 vdd _95_ gnd _96_ _94_ NOR2X1
XINVX1_77 _96_ _97_ vdd gnd INVX1
XNOR2X1_48 vdd i_add1[16] gnd _98_ i_add2[16] NOR2X1
XINVX1_78 _98_ _99_ vdd gnd INVX1
XNOR2X1_49 vdd i_add1[17] gnd _100_ i_add2[17] NOR2X1
XINVX1_79 _100_ _101_ vdd gnd INVX1
XNAND3X1_41 _101_ vdd gnd _99_ _92_ _102_ NAND3X1
XAND2X2_36 vdd gnd _102_ _97_ _103_ AND2X2
XINVX1_80 _103_ w_C[18] vdd gnd INVX1
XAND2X2_37 vdd gnd i_add2[18] i_add1[18] _104_ AND2X2
XINVX1_81 _104_ _105_ vdd gnd INVX1
XNAND3X1_42 _105_ vdd gnd _97_ _102_ _106_ NAND3X1
XOAI21X1_40 gnd vdd i_add2[18] i_add1[18] _107_ _106_ OAI21X1
XINVX1_82 _107_ w_C[19] vdd gnd INVX1
XINVX1_83 i_add2[19] _108_ vdd gnd INVX1
XINVX1_84 i_add1[19] _109_ vdd gnd INVX1
XNOR2X1_50 vdd _109_ gnd _110_ _108_ NOR2X1
XINVX1_85 _110_ _111_ vdd gnd INVX1
XNOR2X1_51 vdd i_add1[18] gnd _112_ i_add2[18] NOR2X1
XINVX1_86 _112_ _113_ vdd gnd INVX1
XNOR2X1_52 vdd i_add1[19] gnd _114_ i_add2[19] NOR2X1
XINVX1_87 _114_ _115_ vdd gnd INVX1
XNAND3X1_43 _115_ vdd gnd _113_ _106_ _116_ NAND3X1
XAND2X2_38 vdd gnd _116_ _111_ _117_ AND2X2
XINVX1_88 _117_ w_C[20] vdd gnd INVX1
XAND2X2_39 vdd gnd i_add2[20] i_add1[20] _118_ AND2X2
XINVX1_89 _118_ _119_ vdd gnd INVX1
XNAND3X1_44 _119_ vdd gnd _111_ _116_ _120_ NAND3X1
XOAI21X1_41 gnd vdd i_add2[20] i_add1[20] _121_ _120_ OAI21X1
XINVX1_90 _121_ w_C[21] vdd gnd INVX1
XINVX1_91 i_add2[21] _122_ vdd gnd INVX1
XINVX1_92 i_add1[21] _123_ vdd gnd INVX1
XNOR2X1_53 vdd _123_ gnd _124_ _122_ NOR2X1
XINVX1_93 _124_ _125_ vdd gnd INVX1
XNOR2X1_54 vdd i_add1[20] gnd _126_ i_add2[20] NOR2X1
XINVX1_94 _126_ _127_ vdd gnd INVX1
XNOR2X1_55 vdd i_add1[21] gnd _128_ i_add2[21] NOR2X1
XINVX1_95 _128_ _129_ vdd gnd INVX1
XNAND3X1_45 _129_ vdd gnd _127_ _120_ _130_ NAND3X1
XAND2X2_40 vdd gnd _130_ _125_ _131_ AND2X2
XINVX1_96 _131_ w_C[22] vdd gnd INVX1
XAND2X2_41 vdd gnd i_add2[22] i_add1[22] _132_ AND2X2
XINVX1_97 _132_ _133_ vdd gnd INVX1
XNAND3X1_46 _133_ vdd gnd _125_ _130_ _134_ NAND3X1
XOAI21X1_42 gnd vdd i_add2[22] i_add1[22] _135_ _134_ OAI21X1
XINVX1_98 _135_ w_C[23] vdd gnd INVX1
XINVX1_99 i_add2[23] _136_ vdd gnd INVX1
XINVX1_100 i_add1[23] _137_ vdd gnd INVX1
XNOR2X1_56 vdd _137_ gnd _138_ _136_ NOR2X1
XINVX1_101 _138_ _139_ vdd gnd INVX1
XNOR2X1_57 vdd i_add1[22] gnd _140_ i_add2[22] NOR2X1
XINVX1_102 _140_ _141_ vdd gnd INVX1
XNOR2X1_58 vdd i_add1[23] gnd _142_ i_add2[23] NOR2X1
XINVX1_103 _142_ _143_ vdd gnd INVX1
XNAND3X1_47 _143_ vdd gnd _141_ _134_ _144_ NAND3X1
XAND2X2_42 vdd gnd _144_ _139_ _145_ AND2X2
XINVX1_104 _145_ w_C[24] vdd gnd INVX1
XAND2X2_43 vdd gnd i_add2[24] i_add1[24] _146_ AND2X2
XINVX1_105 _146_ _147_ vdd gnd INVX1
XNAND3X1_48 _147_ vdd gnd _139_ _144_ _148_ NAND3X1
XOAI21X1_43 gnd vdd i_add2[24] i_add1[24] _149_ _148_ OAI21X1
XINVX1_106 _149_ w_C[25] vdd gnd INVX1
XINVX1_107 i_add2[25] _150_ vdd gnd INVX1
XINVX1_108 i_add1[25] _151_ vdd gnd INVX1
XNOR2X1_59 vdd _151_ gnd _152_ _150_ NOR2X1
XINVX1_109 _152_ _153_ vdd gnd INVX1
XNOR2X1_60 vdd i_add1[24] gnd _154_ i_add2[24] NOR2X1
XINVX1_110 _154_ _155_ vdd gnd INVX1
XNOR2X1_61 vdd i_add1[25] gnd _156_ i_add2[25] NOR2X1
XINVX1_111 _156_ _157_ vdd gnd INVX1
XNAND3X1_49 _157_ vdd gnd _155_ _148_ _158_ NAND3X1
XAND2X2_44 vdd gnd _158_ _153_ _159_ AND2X2
XINVX1_112 _159_ w_C[26] vdd gnd INVX1
XAND2X2_45 vdd gnd i_add2[26] i_add1[26] _160_ AND2X2
XINVX1_113 _160_ _161_ vdd gnd INVX1
XNAND3X1_50 _161_ vdd gnd _153_ _158_ _162_ NAND3X1
XOAI21X1_44 gnd vdd i_add2[26] i_add1[26] _163_ _162_ OAI21X1
XINVX1_114 _163_ w_C[27] vdd gnd INVX1
XINVX1_115 i_add2[27] _164_ vdd gnd INVX1
XINVX1_116 i_add1[27] _165_ vdd gnd INVX1
XNOR2X1_62 vdd _165_ gnd _166_ _164_ NOR2X1
XINVX1_117 _166_ _167_ vdd gnd INVX1
XNOR2X1_63 vdd i_add1[26] gnd _168_ i_add2[26] NOR2X1
XINVX1_118 _168_ _169_ vdd gnd INVX1
XNOR2X1_64 vdd i_add1[27] gnd _170_ i_add2[27] NOR2X1
XINVX1_119 _170_ _171_ vdd gnd INVX1
XNAND3X1_51 _171_ vdd gnd _169_ _162_ _172_ NAND3X1
XAND2X2_46 vdd gnd _172_ _167_ _173_ AND2X2
XINVX1_120 _173_ w_C[28] vdd gnd INVX1
XAND2X2_47 vdd gnd i_add2[28] i_add1[28] _174_ AND2X2
XINVX1_121 _174_ _175_ vdd gnd INVX1
XNAND3X1_52 _175_ vdd gnd _167_ _172_ _176_ NAND3X1
XOAI21X1_45 gnd vdd i_add2[28] i_add1[28] _177_ _176_ OAI21X1
XINVX1_122 _177_ w_C[29] vdd gnd INVX1
XINVX1_123 i_add2[29] _178_ vdd gnd INVX1
XINVX1_124 i_add1[29] _179_ vdd gnd INVX1
XNOR2X1_65 vdd _179_ gnd _180_ _178_ NOR2X1
XINVX1_125 _180_ _181_ vdd gnd INVX1
XNOR2X1_66 vdd i_add1[28] gnd _182_ i_add2[28] NOR2X1
XINVX1_126 _182_ _183_ vdd gnd INVX1
XNOR2X1_67 vdd i_add1[29] gnd _184_ i_add2[29] NOR2X1
XINVX1_127 _184_ _185_ vdd gnd INVX1
XNAND3X1_53 _185_ vdd gnd _183_ _176_ _186_ NAND3X1
XAND2X2_48 vdd gnd _186_ _181_ _187_ AND2X2
XINVX1_128 _187_ w_C[30] vdd gnd INVX1
XAND2X2_49 vdd gnd i_add2[30] i_add1[30] _188_ AND2X2
XINVX1_129 _188_ _189_ vdd gnd INVX1
XNAND3X1_54 _189_ vdd gnd _181_ _186_ _190_ NAND3X1
XOAI21X1_46 gnd vdd i_add2[30] i_add1[30] _191_ _190_ OAI21X1
XINVX1_130 _191_ w_C[31] vdd gnd INVX1
XINVX1_131 i_add2[31] _192_ vdd gnd INVX1
XINVX1_132 i_add1[31] _193_ vdd gnd INVX1
XNOR2X1_68 vdd _193_ gnd _194_ _192_ NOR2X1
XINVX1_133 _194_ _195_ vdd gnd INVX1
XNOR2X1_69 vdd i_add1[30] gnd _196_ i_add2[30] NOR2X1
XINVX1_134 _196_ _197_ vdd gnd INVX1
XNOR2X1_70 vdd i_add1[31] gnd _198_ i_add2[31] NOR2X1
XINVX1_135 _198_ _199_ vdd gnd INVX1
XNAND3X1_55 _199_ vdd gnd _197_ _190_ _200_ NAND3X1
XAND2X2_50 vdd gnd _200_ _195_ _201_ AND2X2
XINVX1_136 _201_ w_C[32] vdd gnd INVX1
XAND2X2_51 vdd gnd i_add2[32] i_add1[32] _202_ AND2X2
XINVX1_137 _202_ _203_ vdd gnd INVX1
XNAND3X1_56 _203_ vdd gnd _195_ _200_ _204_ NAND3X1
XOAI21X1_47 gnd vdd i_add2[32] i_add1[32] _205_ _204_ OAI21X1
XINVX1_138 _205_ w_C[33] vdd gnd INVX1
XNAND2X1_60 vdd _206_ gnd i_add2[33] i_add1[33] NAND2X1
XNOR2X1_71 vdd i_add1[33] gnd _207_ i_add2[33] NOR2X1
XOAI21X1_48 gnd vdd _207_ _205_ w_C[34] _206_ OAI21X1
XOR2X2_28 _208_ i_add1[34] vdd gnd i_add2[34] OR2X2
XNOR2X1_72 vdd i_add1[32] gnd _209_ i_add2[32] NOR2X1
XINVX1_139 _209_ _210_ vdd gnd INVX1
XINVX1_140 _207_ _211_ vdd gnd INVX1
XNAND3X1_57 _211_ vdd gnd _210_ _204_ _212_ NAND3X1
XNAND2X1_61 vdd _213_ gnd i_add2[34] i_add1[34] NAND2X1
XNAND3X1_58 _213_ vdd gnd _206_ _212_ _214_ NAND3X1
XAND2X2_52 vdd gnd _214_ _208_ w_C[35] AND2X2
XINVX1_141 i_add2[35] _215_ vdd gnd INVX1
XINVX1_142 i_add1[35] _216_ vdd gnd INVX1
XNAND2X1_62 vdd _217_ gnd _215_ _216_ NAND2X1
XNAND3X1_59 _217_ vdd gnd _208_ _214_ _218_ NAND3X1
XOAI21X1_49 gnd vdd _215_ _216_ w_C[36] _218_ OAI21X1
XINVX1_143 i_add2[36] _219_ vdd gnd INVX1
XINVX1_144 i_add1[36] _220_ vdd gnd INVX1
XOAI21X1_50 gnd vdd i_add2[36] i_add1[36] _221_ w_C[36] OAI21X1
XOAI21X1_51 gnd vdd _219_ _220_ w_C[37] _221_ OAI21X1
XINVX1_145 i_add2[37] _222_ vdd gnd INVX1
XINVX1_146 i_add1[37] _223_ vdd gnd INVX1
XNOR2X1_73 vdd _223_ gnd _224_ _222_ NOR2X1
XOR2X2_29 _225_ _224_ vdd gnd w_C[37] OR2X2
XOAI21X1_52 gnd vdd i_add2[37] i_add1[37] _226_ _225_ OAI21X1
XINVX1_147 _226_ w_C[38] vdd gnd INVX1
XNAND2X1_63 vdd _227_ gnd i_add2[38] i_add1[38] NAND2X1
XNOR2X1_74 vdd i_add1[38] gnd _228_ i_add2[38] NOR2X1
XOAI21X1_53 gnd vdd _228_ _226_ w_C[39] _227_ OAI21X1
XNAND2X1_64 vdd _229_ gnd i_add2[39] i_add1[39] NAND2X1
XINVX1_148 _228_ _230_ vdd gnd INVX1
XINVX1_149 _224_ _231_ vdd gnd INVX1
XNAND2X1_65 vdd _232_ gnd _219_ _220_ NAND2X1
XNAND2X1_66 vdd _233_ gnd i_add2[35] i_add1[35] NAND2X1
XNAND2X1_67 vdd _234_ gnd i_add2[36] i_add1[36] NAND2X1
XNAND3X1_60 _234_ vdd gnd _233_ _218_ _235_ NAND3X1
XNAND2X1_68 vdd _236_ gnd _222_ _223_ NAND2X1
XNAND3X1_61 _236_ vdd gnd _232_ _235_ _237_ NAND3X1
XNAND3X1_62 _227_ vdd gnd _231_ _237_ _238_ NAND3X1
XOR2X2_30 _239_ i_add1[39] vdd gnd i_add2[39] OR2X2
XNAND3X1_63 _239_ vdd gnd _230_ _238_ _240_ NAND3X1
XNAND2X1_69 vdd w_C[40] gnd _229_ _240_ NAND2X1
XOR2X2_31 _241_ i_add1[40] vdd gnd i_add2[40] OR2X2
XNAND2X1_70 vdd _242_ gnd i_add2[40] i_add1[40] NAND2X1
XNAND3X1_64 _242_ vdd gnd _229_ _240_ _243_ NAND3X1
XAND2X2_53 vdd gnd _243_ _241_ w_C[41] AND2X2
XNAND2X1_71 vdd _244_ gnd i_add2[41] i_add1[41] NAND2X1
XOR2X2_32 _245_ i_add1[41] vdd gnd i_add2[41] OR2X2
XNAND3X1_65 _245_ vdd gnd _241_ _243_ _246_ NAND3X1
XNAND2X1_72 vdd w_C[42] gnd _244_ _246_ NAND2X1
XBUFX2_1 vdd gnd _247_[39] o_result[39] BUFX2
XBUFX2_2 vdd gnd _247_[40] o_result[40] BUFX2
XBUFX2_3 vdd gnd _247_[41] o_result[41] BUFX2
XBUFX2_4 vdd gnd w_C[42] o_result[42] BUFX2
XBUFX2_5 vdd gnd _247_[0] o_result[0] BUFX2
XBUFX2_6 vdd gnd _247_[1] o_result[1] BUFX2
XBUFX2_7 vdd gnd _247_[2] o_result[2] BUFX2
XBUFX2_8 vdd gnd _247_[3] o_result[3] BUFX2
XBUFX2_9 vdd gnd _247_[4] o_result[4] BUFX2
XBUFX2_10 vdd gnd _247_[5] o_result[5] BUFX2
XBUFX2_11 vdd gnd _247_[6] o_result[6] BUFX2
XBUFX2_12 vdd gnd _247_[7] o_result[7] BUFX2
XBUFX2_13 vdd gnd _247_[8] o_result[8] BUFX2
XBUFX2_14 vdd gnd _247_[9] o_result[9] BUFX2
XBUFX2_15 vdd gnd _247_[10] o_result[10] BUFX2
XBUFX2_16 vdd gnd _247_[11] o_result[11] BUFX2
XBUFX2_17 vdd gnd _247_[12] o_result[12] BUFX2
XBUFX2_18 vdd gnd _247_[13] o_result[13] BUFX2
XBUFX2_19 vdd gnd _247_[14] o_result[14] BUFX2
XBUFX2_20 vdd gnd _247_[15] o_result[15] BUFX2
XBUFX2_21 vdd gnd _247_[16] o_result[16] BUFX2
XBUFX2_22 vdd gnd _247_[17] o_result[17] BUFX2
XBUFX2_23 vdd gnd _247_[18] o_result[18] BUFX2
XBUFX2_24 vdd gnd _247_[19] o_result[19] BUFX2
XBUFX2_25 vdd gnd _247_[20] o_result[20] BUFX2
XBUFX2_26 vdd gnd _247_[21] o_result[21] BUFX2
XBUFX2_27 vdd gnd _247_[22] o_result[22] BUFX2
XBUFX2_28 vdd gnd _247_[23] o_result[23] BUFX2
XBUFX2_29 vdd gnd _247_[24] o_result[24] BUFX2
XBUFX2_30 vdd gnd _247_[25] o_result[25] BUFX2
XBUFX2_31 vdd gnd _247_[26] o_result[26] BUFX2
XBUFX2_32 vdd gnd _247_[27] o_result[27] BUFX2
XBUFX2_33 vdd gnd _247_[28] o_result[28] BUFX2
XBUFX2_34 vdd gnd _247_[29] o_result[29] BUFX2
XBUFX2_35 vdd gnd _247_[30] o_result[30] BUFX2
XBUFX2_36 vdd gnd _247_[31] o_result[31] BUFX2
XBUFX2_37 vdd gnd _247_[32] o_result[32] BUFX2
XBUFX2_38 vdd gnd _247_[33] o_result[33] BUFX2
XBUFX2_39 vdd gnd _247_[34] o_result[34] BUFX2
XBUFX2_40 vdd gnd _247_[35] o_result[35] BUFX2
XBUFX2_41 vdd gnd _247_[36] o_result[36] BUFX2
XBUFX2_42 vdd gnd _247_[37] o_result[37] BUFX2
XBUFX2_43 vdd gnd _247_[38] o_result[38] BUFX2
XINVX1_150 w_C[4] _251_ vdd gnd INVX1
XOR2X2_33 _252_ i_add1[4] vdd gnd i_add2[4] OR2X2
XNAND2X1_73 vdd _253_ gnd i_add2[4] i_add1[4] NAND2X1
XNAND3X1_66 _253_ vdd gnd _251_ _252_ _254_ NAND3X1
XNOR2X1_75 vdd i_add1[4] gnd _248_ i_add2[4] NOR2X1
XAND2X2_54 vdd gnd i_add2[4] i_add1[4] _249_ AND2X2
XOAI21X1_54 gnd vdd _248_ _249_ _250_ w_C[4] OAI21X1
XNAND2X1_74 vdd _247_[4] gnd _250_ _254_ NAND2X1
XINVX1_151 w_C[5] _258_ vdd gnd INVX1
XOR2X2_34 _259_ i_add1[5] vdd gnd i_add2[5] OR2X2
XNAND2X1_75 vdd _260_ gnd i_add2[5] i_add1[5] NAND2X1
XNAND3X1_67 _260_ vdd gnd _258_ _259_ _261_ NAND3X1
XNOR2X1_76 vdd i_add1[5] gnd _255_ i_add2[5] NOR2X1
XAND2X2_55 vdd gnd i_add2[5] i_add1[5] _256_ AND2X2
XOAI21X1_55 gnd vdd _255_ _256_ _257_ w_C[5] OAI21X1
XNAND2X1_76 vdd _247_[5] gnd _257_ _261_ NAND2X1
XINVX1_152 w_C[6] _265_ vdd gnd INVX1
XOR2X2_35 _266_ i_add1[6] vdd gnd i_add2[6] OR2X2
XNAND2X1_77 vdd _267_ gnd i_add2[6] i_add1[6] NAND2X1
XNAND3X1_68 _267_ vdd gnd _265_ _266_ _268_ NAND3X1
XNOR2X1_77 vdd i_add1[6] gnd _262_ i_add2[6] NOR2X1
XAND2X2_56 vdd gnd i_add2[6] i_add1[6] _263_ AND2X2
XOAI21X1_56 gnd vdd _262_ _263_ _264_ w_C[6] OAI21X1
XNAND2X1_78 vdd _247_[6] gnd _264_ _268_ NAND2X1
XINVX1_153 w_C[7] _272_ vdd gnd INVX1
XOR2X2_36 _273_ i_add1[7] vdd gnd i_add2[7] OR2X2
XNAND2X1_79 vdd _274_ gnd i_add2[7] i_add1[7] NAND2X1
XNAND3X1_69 _274_ vdd gnd _272_ _273_ _275_ NAND3X1
XNOR2X1_78 vdd i_add1[7] gnd _269_ i_add2[7] NOR2X1
XAND2X2_57 vdd gnd i_add2[7] i_add1[7] _270_ AND2X2
XOAI21X1_57 gnd vdd _269_ _270_ _271_ w_C[7] OAI21X1
XNAND2X1_80 vdd _247_[7] gnd _271_ _275_ NAND2X1
XINVX1_154 w_C[8] _279_ vdd gnd INVX1
XOR2X2_37 _280_ i_add1[8] vdd gnd i_add2[8] OR2X2
XNAND2X1_81 vdd _281_ gnd i_add2[8] i_add1[8] NAND2X1
XNAND3X1_70 _281_ vdd gnd _279_ _280_ _282_ NAND3X1
XNOR2X1_79 vdd i_add1[8] gnd _276_ i_add2[8] NOR2X1
XAND2X2_58 vdd gnd i_add2[8] i_add1[8] _277_ AND2X2
XOAI21X1_58 gnd vdd _276_ _277_ _278_ w_C[8] OAI21X1
XNAND2X1_82 vdd _247_[8] gnd _278_ _282_ NAND2X1
XINVX1_155 w_C[9] _286_ vdd gnd INVX1
XOR2X2_38 _287_ i_add1[9] vdd gnd i_add2[9] OR2X2
XNAND2X1_83 vdd _288_ gnd i_add2[9] i_add1[9] NAND2X1
XNAND3X1_71 _288_ vdd gnd _286_ _287_ _289_ NAND3X1
XNOR2X1_80 vdd i_add1[9] gnd _283_ i_add2[9] NOR2X1
XAND2X2_59 vdd gnd i_add2[9] i_add1[9] _284_ AND2X2
XOAI21X1_59 gnd vdd _283_ _284_ _285_ w_C[9] OAI21X1
XNAND2X1_84 vdd _247_[9] gnd _285_ _289_ NAND2X1
XINVX1_156 w_C[10] _293_ vdd gnd INVX1
XOR2X2_39 _294_ i_add1[10] vdd gnd i_add2[10] OR2X2
XNAND2X1_85 vdd _295_ gnd i_add2[10] i_add1[10] NAND2X1
XNAND3X1_72 _295_ vdd gnd _293_ _294_ _296_ NAND3X1