* XSpice netlist created from SPICE and liberty sources by spi2xspice.py
*SPICE netlist created from BLIF module cla_62bit by blif2BSpice
.subckt cla_62bit a_vdd a_gnd a_i_add1_0_ a_i_add1_1_ a_i_add1_2_ a_i_add1_3_ a_i_add1_4_ a_i_add1_5_ a_i_add1_6_ a_i_add1_7_ a_i_add1_8_ a_i_add1_9_ a_i_add1_10_ a_i_add1_11_ a_i_add1_12_ a_i_add1_13_ a_i_add1_14_ a_i_add1_15_ a_i_add1_16_ a_i_add1_17_ a_i_add1_18_ a_i_add1_19_ a_i_add1_20_ a_i_add1_21_ a_i_add1_22_ a_i_add1_23_ a_i_add1_24_ a_i_add1_25_ a_i_add1_26_ a_i_add1_27_ a_i_add1_28_ a_i_add1_29_ a_i_add1_30_ a_i_add1_31_ a_i_add1_32_ a_i_add1_33_ a_i_add1_34_ a_i_add1_35_ a_i_add1_36_ a_i_add1_37_ a_i_add1_38_ a_i_add1_39_ a_i_add1_40_ a_i_add1_41_ a_i_add1_42_ a_i_add1_43_ a_i_add1_44_ a_i_add1_45_ a_i_add1_46_ a_i_add1_47_ a_i_add1_48_ a_i_add1_49_ a_i_add1_50_ a_i_add1_51_ a_i_add1_52_ a_i_add1_53_ a_i_add1_54_ a_i_add1_55_ a_i_add1_56_ a_i_add1_57_ a_i_add1_58_ a_i_add1_59_ a_i_add1_60_ a_i_add1_61_ a_i_add2_0_ a_i_add2_1_ a_i_add2_2_ a_i_add2_3_ a_i_add2_4_ a_i_add2_5_ a_i_add2_6_ a_i_add2_7_ a_i_add2_8_ a_i_add2_9_ a_i_add2_10_ a_i_add2_11_ a_i_add2_12_ a_i_add2_13_ a_i_add2_14_ a_i_add2_15_ a_i_add2_16_ a_i_add2_17_ a_i_add2_18_ a_i_add2_19_ a_i_add2_20_ a_i_add2_21_ a_i_add2_22_ a_i_add2_23_ a_i_add2_24_ a_i_add2_25_ a_i_add2_26_ a_i_add2_27_ a_i_add2_28_ a_i_add2_29_ a_i_add2_30_ a_i_add2_31_ a_i_add2_32_ a_i_add2_33_ a_i_add2_34_ a_i_add2_35_ a_i_add2_36_ a_i_add2_37_ a_i_add2_38_ a_i_add2_39_ a_i_add2_40_ a_i_add2_41_ a_i_add2_42_ a_i_add2_43_ a_i_add2_44_ a_i_add2_45_ a_i_add2_46_ a_i_add2_47_ a_i_add2_48_ a_i_add2_49_ a_i_add2_50_ a_i_add2_51_ a_i_add2_52_ a_i_add2_53_ a_i_add2_54_ a_i_add2_55_ a_i_add2_56_ a_i_add2_57_ a_i_add2_58_ a_i_add2_59_ a_i_add2_60_ a_i_add2_61_ a_o_result_0_ a_o_result_1_ a_o_result_2_ a_o_result_3_ a_o_result_4_ a_o_result_5_ a_o_result_6_ a_o_result_7_ a_o_result_8_ a_o_result_9_ a_o_result_10_ a_o_result_11_ a_o_result_12_ a_o_result_13_ a_o_result_14_ a_o_result_15_ a_o_result_16_ a_o_result_17_ a_o_result_18_ a_o_result_19_ a_o_result_20_ a_o_result_21_ a_o_result_22_ a_o_result_23_ a_o_result_24_ a_o_result_25_ a_o_result_26_ a_o_result_27_ a_o_result_28_ a_o_result_29_ a_o_result_30_ a_o_result_31_ a_o_result_32_ a_o_result_33_ a_o_result_34_ a_o_result_35_ a_o_result_36_ a_o_result_37_ a_o_result_38_ a_o_result_39_ a_o_result_40_ a_o_result_41_ a_o_result_42_ a_o_result_43_ a_o_result_44_ a_o_result_45_ a_o_result_46_ a_o_result_47_ a_o_result_48_ a_o_result_49_ a_o_result_50_ a_o_result_51_ a_o_result_52_ a_o_result_53_ a_o_result_54_ a_o_result_55_ a_o_result_56_ a_o_result_57_ a_o_result_58_ a_o_result_59_ a_o_result_60_ a_o_result_61_ a_o_result_62_
ANAND3X1_1 [_211_ _213_ _209_] _214_ d_lut_NAND3X1
AOAI21X1_1 [i_add2_36_ i_add1_36_ _214_] _215_ d_lut_OAI21X1
AINVX1_1 [_215_] w_C_37_ d_lut_INVX1
AINVX1_2 [i_add2_37_] _216_ d_lut_INVX1
AINVX1_3 [i_add1_37_] _217_ d_lut_INVX1
ANOR2X1_1 [i_add2_36_ i_add1_36_] _218_ d_lut_NOR2X1
AINVX1_4 [_218_] _219_ d_lut_INVX1
ANOR2X1_2 [i_add2_37_ i_add1_37_] _220_ d_lut_NOR2X1
AINVX1_5 [_220_] _221_ d_lut_INVX1
ANAND3X1_2 [_219_ _221_ _214_] _222_ d_lut_NAND3X1
AOAI21X1_2 [_216_ _217_ _222_] w_C_38_ d_lut_OAI21X1
ANOR2X1_3 [_216_ _217_] _223_ d_lut_NOR2X1
AINVX1_6 [_223_] _224_ d_lut_INVX1
AAND2X2_1 [i_add2_38_ i_add1_38_] _225_ d_lut_AND2X2
AINVX1_7 [_225_] _226_ d_lut_INVX1
ANAND3X1_3 [_224_ _226_ _222_] _227_ d_lut_NAND3X1
AOAI21X1_3 [i_add2_38_ i_add1_38_ _227_] _228_ d_lut_OAI21X1
AINVX1_8 [_228_] w_C_39_ d_lut_INVX1
AINVX1_9 [i_add2_39_] _229_ d_lut_INVX1
AINVX1_10 [i_add1_39_] _230_ d_lut_INVX1
ANOR2X1_4 [i_add2_38_ i_add1_38_] _231_ d_lut_NOR2X1
AINVX1_11 [_231_] _232_ d_lut_INVX1
ANOR2X1_5 [i_add2_39_ i_add1_39_] _233_ d_lut_NOR2X1
AINVX1_12 [_233_] _234_ d_lut_INVX1
ANAND3X1_4 [_232_ _234_ _227_] _235_ d_lut_NAND3X1
AOAI21X1_4 [_229_ _230_ _235_] w_C_40_ d_lut_OAI21X1
ANOR2X1_6 [_229_ _230_] _236_ d_lut_NOR2X1
AINVX1_13 [_236_] _237_ d_lut_INVX1
AAND2X2_2 [i_add2_40_ i_add1_40_] _238_ d_lut_AND2X2
AINVX1_14 [_238_] _239_ d_lut_INVX1
ANAND3X1_5 [_237_ _239_ _235_] _240_ d_lut_NAND3X1
AOAI21X1_5 [i_add2_40_ i_add1_40_ _240_] _241_ d_lut_OAI21X1
AINVX1_15 [_241_] w_C_41_ d_lut_INVX1
AINVX1_16 [i_add2_41_] _242_ d_lut_INVX1
AINVX1_17 [i_add1_41_] _243_ d_lut_INVX1
ANOR2X1_7 [i_add2_40_ i_add1_40_] _244_ d_lut_NOR2X1
AINVX1_18 [_244_] _245_ d_lut_INVX1
ANOR2X1_8 [i_add2_41_ i_add1_41_] _246_ d_lut_NOR2X1
AINVX1_19 [_246_] _247_ d_lut_INVX1
ANAND3X1_6 [_245_ _247_ _240_] _248_ d_lut_NAND3X1
AOAI21X1_6 [_242_ _243_ _248_] w_C_42_ d_lut_OAI21X1
ANOR2X1_9 [_242_ _243_] _249_ d_lut_NOR2X1
AINVX1_20 [_249_] _250_ d_lut_INVX1
AAND2X2_3 [i_add2_42_ i_add1_42_] _251_ d_lut_AND2X2
AINVX1_21 [_251_] _252_ d_lut_INVX1
ANAND3X1_7 [_250_ _252_ _248_] _253_ d_lut_NAND3X1
AOAI21X1_7 [i_add2_42_ i_add1_42_ _253_] _254_ d_lut_OAI21X1
AINVX1_22 [_254_] w_C_43_ d_lut_INVX1
AINVX1_23 [i_add2_43_] _255_ d_lut_INVX1
AINVX1_24 [i_add1_43_] _256_ d_lut_INVX1
ANOR2X1_10 [i_add2_42_ i_add1_42_] _257_ d_lut_NOR2X1
AINVX1_25 [_257_] _258_ d_lut_INVX1
ANOR2X1_11 [i_add2_43_ i_add1_43_] _259_ d_lut_NOR2X1
AINVX1_26 [_259_] _260_ d_lut_INVX1
ANAND3X1_8 [_258_ _260_ _253_] _261_ d_lut_NAND3X1
AOAI21X1_8 [_255_ _256_ _261_] w_C_44_ d_lut_OAI21X1
ANOR2X1_12 [_255_ _256_] _262_ d_lut_NOR2X1
AINVX1_27 [_262_] _263_ d_lut_INVX1
AAND2X2_4 [i_add2_44_ i_add1_44_] _264_ d_lut_AND2X2
AINVX1_28 [_264_] _265_ d_lut_INVX1
ANAND3X1_9 [_263_ _265_ _261_] _266_ d_lut_NAND3X1
AOAI21X1_9 [i_add2_44_ i_add1_44_ _266_] _267_ d_lut_OAI21X1
AINVX1_29 [_267_] w_C_45_ d_lut_INVX1
AINVX1_30 [i_add2_45_] _268_ d_lut_INVX1
AINVX1_31 [i_add1_45_] _269_ d_lut_INVX1
ANOR2X1_13 [i_add2_44_ i_add1_44_] _270_ d_lut_NOR2X1
AINVX1_32 [_270_] _271_ d_lut_INVX1
ANOR2X1_14 [i_add2_45_ i_add1_45_] _272_ d_lut_NOR2X1
AINVX1_33 [_272_] _273_ d_lut_INVX1
ANAND3X1_10 [_271_ _273_ _266_] _274_ d_lut_NAND3X1
AOAI21X1_10 [_268_ _269_ _274_] w_C_46_ d_lut_OAI21X1
ANOR2X1_15 [_268_ _269_] _275_ d_lut_NOR2X1
AINVX1_34 [_275_] _276_ d_lut_INVX1
AAND2X2_5 [i_add2_46_ i_add1_46_] _277_ d_lut_AND2X2
AINVX1_35 [_277_] _278_ d_lut_INVX1
ANAND3X1_11 [_276_ _278_ _274_] _279_ d_lut_NAND3X1
AOAI21X1_11 [i_add2_46_ i_add1_46_ _279_] _280_ d_lut_OAI21X1
AINVX1_36 [_280_] w_C_47_ d_lut_INVX1
AINVX1_37 [i_add2_47_] _281_ d_lut_INVX1
AINVX1_38 [i_add1_47_] _282_ d_lut_INVX1
ANOR2X1_16 [i_add2_46_ i_add1_46_] _283_ d_lut_NOR2X1
AINVX1_39 [_283_] _284_ d_lut_INVX1
ANOR2X1_17 [i_add2_47_ i_add1_47_] _285_ d_lut_NOR2X1
AINVX1_40 [_285_] _286_ d_lut_INVX1
ANAND3X1_12 [_284_ _286_ _279_] _287_ d_lut_NAND3X1
AOAI21X1_12 [_281_ _282_ _287_] w_C_48_ d_lut_OAI21X1
ANOR2X1_18 [_281_ _282_] _288_ d_lut_NOR2X1
AINVX1_41 [_288_] _289_ d_lut_INVX1
AAND2X2_6 [i_add2_48_ i_add1_48_] _290_ d_lut_AND2X2
AINVX1_42 [_290_] _291_ d_lut_INVX1
ANAND3X1_13 [_289_ _291_ _287_] _292_ d_lut_NAND3X1
AOAI21X1_13 [i_add2_48_ i_add1_48_ _292_] _293_ d_lut_OAI21X1
AINVX1_43 [_293_] w_C_49_ d_lut_INVX1
AINVX1_44 [i_add2_49_] _294_ d_lut_INVX1
AINVX1_45 [i_add1_49_] _295_ d_lut_INVX1
ANOR2X1_19 [i_add2_48_ i_add1_48_] _296_ d_lut_NOR2X1
AINVX1_46 [_296_] _297_ d_lut_INVX1
ANOR2X1_20 [i_add2_49_ i_add1_49_] _298_ d_lut_NOR2X1
AINVX1_47 [_298_] _299_ d_lut_INVX1
ANAND3X1_14 [_297_ _299_ _292_] _300_ d_lut_NAND3X1
AOAI21X1_14 [_294_ _295_ _300_] w_C_50_ d_lut_OAI21X1
ANOR2X1_21 [i_add2_50_ i_add1_50_] _301_ d_lut_NOR2X1
AINVX1_48 [_301_] _302_ d_lut_INVX1
ANOR2X1_22 [_294_ _295_] _303_ d_lut_NOR2X1
AINVX1_49 [_303_] _304_ d_lut_INVX1
ANAND2X1_1 [i_add2_50_ i_add1_50_] _305_ d_lut_NAND2X1
ANAND3X1_15 [_304_ _305_ _300_] _306_ d_lut_NAND3X1
AAND2X2_7 [_306_ _302_] w_C_51_ d_lut_AND2X2
AINVX1_50 [i_add2_51_] _307_ d_lut_INVX1
AINVX1_51 [i_add1_51_] _308_ d_lut_INVX1
ANAND2X1_2 [_307_ _308_] _309_ d_lut_NAND2X1
ANAND3X1_16 [_302_ _309_ _306_] _310_ d_lut_NAND3X1
AOAI21X1_15 [_307_ _308_ _310_] w_C_52_ d_lut_OAI21X1
AINVX1_52 [i_add2_52_] _311_ d_lut_INVX1
AINVX1_53 [i_add1_52_] _312_ d_lut_INVX1
AOAI21X1_16 [i_add2_52_ i_add1_52_ w_C_52_] _313_ d_lut_OAI21X1
AOAI21X1_17 [_311_ _312_ _313_] w_C_53_ d_lut_OAI21X1
AINVX1_54 [i_add2_53_] _314_ d_lut_INVX1
AINVX1_55 [i_add1_53_] _315_ d_lut_INVX1
ANOR2X1_23 [_314_ _315_] _316_ d_lut_NOR2X1
AOR2X2_1 [w_C_53_ _316_] _317_ d_lut_OR2X2
AOAI21X1_18 [i_add2_53_ i_add1_53_ _317_] _318_ d_lut_OAI21X1
AINVX1_56 [_318_] w_C_54_ d_lut_INVX1
ANAND2X1_3 [i_add2_54_ i_add1_54_] _319_ d_lut_NAND2X1
ANOR2X1_24 [i_add2_54_ i_add1_54_] _320_ d_lut_NOR2X1
AOAI21X1_19 [_320_ _318_ _319_] w_C_55_ d_lut_OAI21X1
AINVX1_57 [i_add2_55_] _321_ d_lut_INVX1
AINVX1_58 [i_add1_55_] _322_ d_lut_INVX1
AINVX1_59 [_320_] _323_ d_lut_INVX1
AINVX1_60 [_316_] _324_ d_lut_INVX1
ANAND2X1_4 [_311_ _312_] _325_ d_lut_NAND2X1
ANAND2X1_5 [i_add2_51_ i_add1_51_] _326_ d_lut_NAND2X1
ANAND2X1_6 [i_add2_52_ i_add1_52_] _327_ d_lut_NAND2X1
ANAND3X1_17 [_326_ _327_ _310_] _328_ d_lut_NAND3X1
ANAND2X1_7 [_314_ _315_] _329_ d_lut_NAND2X1
ANAND3X1_18 [_325_ _329_ _328_] _330_ d_lut_NAND3X1
ANAND3X1_19 [_324_ _319_ _330_] _331_ d_lut_NAND3X1
ANAND2X1_8 [_321_ _322_] _332_ d_lut_NAND2X1
ANAND3X1_20 [_323_ _332_ _331_] _333_ d_lut_NAND3X1
AOAI21X1_20 [_321_ _322_ _333_] w_C_56_ d_lut_OAI21X1
AINVX1_61 [i_add2_56_] _334_ d_lut_INVX1
AINVX1_62 [i_add1_56_] _335_ d_lut_INVX1
AOAI21X1_21 [i_add2_56_ i_add1_56_ w_C_56_] _336_ d_lut_OAI21X1
AOAI21X1_22 [_334_ _335_ _336_] w_C_57_ d_lut_OAI21X1
ANOR2X1_25 [_334_ _335_] _337_ d_lut_NOR2X1
AINVX1_63 [_337_] _338_ d_lut_INVX1
AAND2X2_8 [i_add2_57_ i_add1_57_] _339_ d_lut_AND2X2
AINVX1_64 [_339_] _340_ d_lut_INVX1
ANAND3X1_21 [_338_ _340_ _336_] _341_ d_lut_NAND3X1
AOAI21X1_23 [i_add2_57_ i_add1_57_ _341_] _342_ d_lut_OAI21X1
AINVX1_65 [_342_] w_C_58_ d_lut_INVX1
ANAND2X1_9 [i_add2_58_ i_add1_58_] _343_ d_lut_NAND2X1
ANOR2X1_26 [i_add2_58_ i_add1_58_] _344_ d_lut_NOR2X1
AOAI21X1_24 [_344_ _342_ _343_] w_C_59_ d_lut_OAI21X1
ANAND2X1_10 [i_add2_59_ i_add1_59_] _345_ d_lut_NAND2X1
AINVX1_66 [_344_] _346_ d_lut_INVX1
ANOR2X1_27 [i_add2_56_ i_add1_56_] _347_ d_lut_NOR2X1
AINVX1_67 [_347_] _348_ d_lut_INVX1
ANOR2X1_28 [_321_ _322_] _349_ d_lut_NOR2X1
AINVX1_68 [_349_] _350_ d_lut_INVX1
ANAND3X1_22 [_350_ _338_ _333_] _351_ d_lut_NAND3X1
ANOR2X1_29 [i_add2_57_ i_add1_57_] _352_ d_lut_NOR2X1
AINVX1_69 [_352_] _353_ d_lut_INVX1
ANAND3X1_23 [_348_ _353_ _351_] _354_ d_lut_NAND3X1
ANAND3X1_24 [_340_ _343_ _354_] _355_ d_lut_NAND3X1
AOR2X2_2 [i_add2_59_ i_add1_59_] _356_ d_lut_OR2X2
ANAND3X1_25 [_346_ _356_ _355_] _357_ d_lut_NAND3X1
ANAND2X1_11 [_345_ _357_] w_C_60_ d_lut_NAND2X1
AOR2X2_3 [i_add2_60_ i_add1_60_] _358_ d_lut_OR2X2
ANAND2X1_12 [i_add2_60_ i_add1_60_] _359_ d_lut_NAND2X1
ANAND3X1_26 [_345_ _359_ _357_] _360_ d_lut_NAND3X1
AAND2X2_9 [_360_ _358_] w_C_61_ d_lut_AND2X2
ANAND2X1_13 [i_add2_61_ i_add1_61_] _361_ d_lut_NAND2X1
AOR2X2_4 [i_add2_61_ i_add1_61_] _362_ d_lut_OR2X2
ANAND3X1_27 [_358_ _362_ _360_] _363_ d_lut_NAND3X1
ANAND2X1_14 [_361_ _363_] w_C_62_ d_lut_NAND2X1
ANAND2X1_15 [i_add2_0_ i_add1_0_] _0_ d_lut_NAND2X1
AINVX1_70 [_0_] w_C_1_ d_lut_INVX1
ANOR2X1_30 [i_add2_1_ i_add1_1_] _1_ d_lut_NOR2X1
AAOI22X1_1 [i_add2_0_ i_add1_0_ i_add2_1_ i_add1_1_] _2_ d_lut_AOI22X1
ANOR2X1_31 [_1_ _2_] w_C_2_ d_lut_NOR2X1
AINVX1_71 [i_add2_2_] _3_ d_lut_INVX1
AINVX1_72 [i_add1_2_] _4_ d_lut_INVX1
ANAND2X1_16 [_3_ _4_] _5_ d_lut_NAND2X1
ANAND2X1_17 [i_add2_2_ i_add1_2_] _6_ d_lut_NAND2X1
AOAI21X1_25 [_1_ _2_ _6_] _7_ d_lut_OAI21X1
AAND2X2_10 [_7_ _5_] w_C_3_ d_lut_AND2X2
ANAND2X1_18 [i_add2_3_ i_add1_3_] _8_ d_lut_NAND2X1
AOR2X2_5 [i_add2_3_ i_add1_3_] _9_ d_lut_OR2X2
ANAND3X1_28 [_5_ _9_ _7_] _10_ d_lut_NAND3X1
ANAND2X1_19 [_8_ _10_] w_C_4_ d_lut_NAND2X1
ANOR2X1_32 [i_add2_4_ i_add1_4_] _11_ d_lut_NOR2X1
AINVX1_73 [_11_] _12_ d_lut_INVX1
ANAND2X1_20 [i_add2_4_ i_add1_4_] _13_ d_lut_NAND2X1
ANAND3X1_29 [_8_ _13_ _10_] _14_ d_lut_NAND3X1
AAND2X2_11 [_14_ _12_] w_C_5_ d_lut_AND2X2
AINVX1_74 [i_add2_5_] _15_ d_lut_INVX1
AINVX1_75 [i_add1_5_] _16_ d_lut_INVX1
ANOR2X1_33 [i_add2_5_ i_add1_5_] _17_ d_lut_NOR2X1
AINVX1_76 [_17_] _18_ d_lut_INVX1
ANAND3X1_30 [_12_ _18_ _14_] _19_ d_lut_NAND3X1
AOAI21X1_26 [_15_ _16_ _19_] w_C_6_ d_lut_OAI21X1
ANOR2X1_34 [i_add2_6_ i_add1_6_] _20_ d_lut_NOR2X1
AINVX1_77 [_20_] _21_ d_lut_INVX1
ANOR2X1_35 [_15_ _16_] _22_ d_lut_NOR2X1
AINVX1_78 [_22_] _23_ d_lut_INVX1
AAND2X2_12 [i_add2_6_ i_add1_6_] _24_ d_lut_AND2X2
AINVX1_79 [_24_] _25_ d_lut_INVX1
ANAND3X1_31 [_23_ _25_ _19_] _26_ d_lut_NAND3X1
AAND2X2_13 [_26_ _21_] w_C_7_ d_lut_AND2X2
AINVX1_80 [i_add2_7_] _27_ d_lut_INVX1
AINVX1_81 [i_add1_7_] _28_ d_lut_INVX1
ANOR2X1_36 [i_add2_7_ i_add1_7_] _29_ d_lut_NOR2X1
AINVX1_82 [_29_] _30_ d_lut_INVX1
ANAND3X1_32 [_21_ _30_ _26_] _31_ d_lut_NAND3X1
AOAI21X1_27 [_27_ _28_ _31_] w_C_8_ d_lut_OAI21X1
ANOR2X1_37 [i_add2_8_ i_add1_8_] _32_ d_lut_NOR2X1
AINVX1_83 [_32_] _33_ d_lut_INVX1
ANOR2X1_38 [_27_ _28_] _34_ d_lut_NOR2X1
AINVX1_84 [_34_] _35_ d_lut_INVX1
AAND2X2_14 [i_add2_8_ i_add1_8_] _36_ d_lut_AND2X2
AINVX1_85 [_36_] _37_ d_lut_INVX1
ANAND3X1_33 [_35_ _37_ _31_] _38_ d_lut_NAND3X1
AAND2X2_15 [_38_ _33_] w_C_9_ d_lut_AND2X2
AAND2X2_16 [i_add2_9_ i_add1_9_] _39_ d_lut_AND2X2
ABUFX2_1 [_364__0_] o_result_0_ d_lut_BUFX2
ABUFX2_2 [_364__1_] o_result_1_ d_lut_BUFX2
ABUFX2_3 [_364__2_] o_result_2_ d_lut_BUFX2
ABUFX2_4 [_364__3_] o_result_3_ d_lut_BUFX2
ABUFX2_5 [_364__4_] o_result_4_ d_lut_BUFX2
ABUFX2_6 [_364__5_] o_result_5_ d_lut_BUFX2
ABUFX2_7 [_364__6_] o_result_6_ d_lut_BUFX2
ABUFX2_8 [_364__7_] o_result_7_ d_lut_BUFX2
ABUFX2_9 [_364__8_] o_result_8_ d_lut_BUFX2
ABUFX2_10 [_364__9_] o_result_9_ d_lut_BUFX2
ABUFX2_11 [_364__10_] o_result_10_ d_lut_BUFX2
ABUFX2_12 [_364__11_] o_result_11_ d_lut_BUFX2
ABUFX2_13 [_364__12_] o_result_12_ d_lut_BUFX2
ABUFX2_14 [_364__13_] o_result_13_ d_lut_BUFX2
ABUFX2_15 [_364__14_] o_result_14_ d_lut_BUFX2
ABUFX2_16 [_364__15_] o_result_15_ d_lut_BUFX2
ABUFX2_17 [_364__16_] o_result_16_ d_lut_BUFX2
ABUFX2_18 [_364__17_] o_result_17_ d_lut_BUFX2
ABUFX2_19 [_364__18_] o_result_18_ d_lut_BUFX2
ABUFX2_20 [_364__19_] o_result_19_ d_lut_BUFX2
ABUFX2_21 [_364__20_] o_result_20_ d_lut_BUFX2
ABUFX2_22 [_364__21_] o_result_21_ d_lut_BUFX2
ABUFX2_23 [_364__22_] o_result_22_ d_lut_BUFX2
ABUFX2_24 [_364__23_] o_result_23_ d_lut_BUFX2
ABUFX2_25 [_364__24_] o_result_24_ d_lut_BUFX2
ABUFX2_26 [_364__25_] o_result_25_ d_lut_BUFX2
ABUFX2_27 [_364__26_] o_result_26_ d_lut_BUFX2
ABUFX2_28 [_364__27_] o_result_27_ d_lut_BUFX2
ABUFX2_29 [_364__28_] o_result_28_ d_lut_BUFX2
ABUFX2_30 [_364__29_] o_result_29_ d_lut_BUFX2
ABUFX2_31 [_364__30_] o_result_30_ d_lut_BUFX2
ABUFX2_32 [_364__31_] o_result_31_ d_lut_BUFX2
ABUFX2_33 [_364__32_] o_result_32_ d_lut_BUFX2
ABUFX2_34 [_364__33_] o_result_33_ d_lut_BUFX2
ABUFX2_35 [_364__34_] o_result_34_ d_lut_BUFX2
ABUFX2_36 [_364__35_] o_result_35_ d_lut_BUFX2
ABUFX2_37 [_364__36_] o_result_36_ d_lut_BUFX2
ABUFX2_38 [_364__37_] o_result_37_ d_lut_BUFX2
ABUFX2_39 [_364__38_] o_result_38_ d_lut_BUFX2
ABUFX2_40 [_364__39_] o_result_39_ d_lut_BUFX2
ABUFX2_41 [_364__40_] o_result_40_ d_lut_BUFX2
ABUFX2_42 [_364__41_] o_result_41_ d_lut_BUFX2
ABUFX2_43 [_364__42_] o_result_42_ d_lut_BUFX2
ABUFX2_44 [_364__43_] o_result_43_ d_lut_BUFX2
ABUFX2_45 [_364__44_] o_result_44_ d_lut_BUFX2
ABUFX2_46 [_364__45_] o_result_45_ d_lut_BUFX2
ABUFX2_47 [_364__46_] o_result_46_ d_lut_BUFX2
ABUFX2_48 [_364__47_] o_result_47_ d_lut_BUFX2
ABUFX2_49 [_364__48_] o_result_48_ d_lut_BUFX2
ABUFX2_50 [_364__49_] o_result_49_ d_lut_BUFX2
ABUFX2_51 [_364__50_] o_result_50_ d_lut_BUFX2
ABUFX2_52 [_364__51_] o_result_51_ d_lut_BUFX2
ABUFX2_53 [_364__52_] o_result_52_ d_lut_BUFX2
ABUFX2_54 [_364__53_] o_result_53_ d_lut_BUFX2
ABUFX2_55 [_364__54_] o_result_54_ d_lut_BUFX2
ABUFX2_56 [_364__55_] o_result_55_ d_lut_BUFX2
ABUFX2_57 [_364__56_] o_result_56_ d_lut_BUFX2
ABUFX2_58 [_364__57_] o_result_57_ d_lut_BUFX2
ABUFX2_59 [_364__58_] o_result_58_ d_lut_BUFX2
ABUFX2_60 [_364__59_] o_result_59_ d_lut_BUFX2
ABUFX2_61 [_364__60_] o_result_60_ d_lut_BUFX2
ABUFX2_62 [_364__61_] o_result_61_ d_lut_BUFX2
ABUFX2_63 [w_C_62_] o_result_62_ d_lut_BUFX2
AINVX1_86 [w_C_4_] _368_ d_lut_INVX1
AOR2X2_6 [i_add2_4_ i_add1_4_] _369_ d_lut_OR2X2
ANAND2X1_21 [i_add2_4_ i_add1_4_] _370_ d_lut_NAND2X1
ANAND3X1_34 [_368_ _370_ _369_] _371_ d_lut_NAND3X1
ANOR2X1_39 [i_add2_4_ i_add1_4_] _365_ d_lut_NOR2X1
AAND2X2_17 [i_add2_4_ i_add1_4_] _366_ d_lut_AND2X2
AOAI21X1_28 [_365_ _366_ w_C_4_] _367_ d_lut_OAI21X1
ANAND2X1_22 [_367_ _371_] _364__4_ d_lut_NAND2X1
AINVX1_87 [w_C_5_] _375_ d_lut_INVX1
AOR2X2_7 [i_add2_5_ i_add1_5_] _376_ d_lut_OR2X2
ANAND2X1_23 [i_add2_5_ i_add1_5_] _377_ d_lut_NAND2X1
ANAND3X1_35 [_375_ _377_ _376_] _378_ d_lut_NAND3X1
ANOR2X1_40 [i_add2_5_ i_add1_5_] _372_ d_lut_NOR2X1
AAND2X2_18 [i_add2_5_ i_add1_5_] _373_ d_lut_AND2X2
AOAI21X1_29 [_372_ _373_ w_C_5_] _374_ d_lut_OAI21X1
ANAND2X1_24 [_374_ _378_] _364__5_ d_lut_NAND2X1
AINVX1_88 [w_C_6_] _382_ d_lut_INVX1
AOR2X2_8 [i_add2_6_ i_add1_6_] _383_ d_lut_OR2X2
ANAND2X1_25 [i_add2_6_ i_add1_6_] _384_ d_lut_NAND2X1
ANAND3X1_36 [_382_ _384_ _383_] _385_ d_lut_NAND3X1
ANOR2X1_41 [i_add2_6_ i_add1_6_] _379_ d_lut_NOR2X1
AAND2X2_19 [i_add2_6_ i_add1_6_] _380_ d_lut_AND2X2
AOAI21X1_30 [_379_ _380_ w_C_6_] _381_ d_lut_OAI21X1
ANAND2X1_26 [_381_ _385_] _364__6_ d_lut_NAND2X1
AINVX1_89 [w_C_7_] _389_ d_lut_INVX1
AOR2X2_9 [i_add2_7_ i_add1_7_] _390_ d_lut_OR2X2
ANAND2X1_27 [i_add2_7_ i_add1_7_] _391_ d_lut_NAND2X1
ANAND3X1_37 [_389_ _391_ _390_] _392_ d_lut_NAND3X1
ANOR2X1_42 [i_add2_7_ i_add1_7_] _386_ d_lut_NOR2X1
AAND2X2_20 [i_add2_7_ i_add1_7_] _387_ d_lut_AND2X2
AOAI21X1_31 [_386_ _387_ w_C_7_] _388_ d_lut_OAI21X1
ANAND2X1_28 [_388_ _392_] _364__7_ d_lut_NAND2X1
AINVX1_90 [w_C_8_] _396_ d_lut_INVX1
AOR2X2_10 [i_add2_8_ i_add1_8_] _397_ d_lut_OR2X2
ANAND2X1_29 [i_add2_8_ i_add1_8_] _398_ d_lut_NAND2X1
ANAND3X1_38 [_396_ _398_ _397_] _399_ d_lut_NAND3X1
ANOR2X1_43 [i_add2_8_ i_add1_8_] _393_ d_lut_NOR2X1
AAND2X2_21 [i_add2_8_ i_add1_8_] _394_ d_lut_AND2X2
AOAI21X1_32 [_393_ _394_ w_C_8_] _395_ d_lut_OAI21X1
ANAND2X1_30 [_395_ _399_] _364__8_ d_lut_NAND2X1
AINVX1_91 [w_C_9_] _403_ d_lut_INVX1
AOR2X2_11 [i_add2_9_ i_add1_9_] _404_ d_lut_OR2X2
ANAND2X1_31 [i_add2_9_ i_add1_9_] _405_ d_lut_NAND2X1
ANAND3X1_39 [_403_ _405_ _404_] _406_ d_lut_NAND3X1
ANOR2X1_44 [i_add2_9_ i_add1_9_] _400_ d_lut_NOR2X1
AAND2X2_22 [i_add2_9_ i_add1_9_] _401_ d_lut_AND2X2
AOAI21X1_33 [_400_ _401_ w_C_9_] _402_ d_lut_OAI21X1
ANAND2X1_32 [_402_ _406_] _364__9_ d_lut_NAND2X1
AINVX1_92 [w_C_10_] _410_ d_lut_INVX1
AOR2X2_12 [i_add2_10_ i_add1_10_] _411_ d_lut_OR2X2
ANAND2X1_33 [i_add2_10_ i_add1_10_] _412_ d_lut_NAND2X1
ANAND3X1_40 [_410_ _412_ _411_] _413_ d_lut_NAND3X1
ANOR2X1_45 [i_add2_10_ i_add1_10_] _407_ d_lut_NOR2X1
AAND2X2_23 [i_add2_10_ i_add1_10_] _408_ d_lut_AND2X2
AOAI21X1_34 [_407_ _408_ w_C_10_] _409_ d_lut_OAI21X1
ANAND2X1_34 [_409_ _413_] _364__10_ d_lut_NAND2X1
AINVX1_93 [w_C_11_] _417_ d_lut_INVX1
AOR2X2_13 [i_add2_11_ i_add1_11_] _418_ d_lut_OR2X2
ANAND2X1_35 [i_add2_11_ i_add1_11_] _419_ d_lut_NAND2X1
ANAND3X1_41 [_417_ _419_ _418_] _420_ d_lut_NAND3X1
ANOR2X1_46 [i_add2_11_ i_add1_11_] _414_ d_lut_NOR2X1
AAND2X2_24 [i_add2_11_ i_add1_11_] _415_ d_lut_AND2X2
AOAI21X1_35 [_414_ _415_ w_C_11_] _416_ d_lut_OAI21X1
ANAND2X1_36 [_416_ _420_] _364__11_ d_lut_NAND2X1
AINVX1_94 [w_C_12_] _424_ d_lut_INVX1
AOR2X2_14 [i_add2_12_ i_add1_12_] _425_ d_lut_OR2X2
ANAND2X1_37 [i_add2_12_ i_add1_12_] _426_ d_lut_NAND2X1
ANAND3X1_42 [_424_ _426_ _425_] _427_ d_lut_NAND3X1
ANOR2X1_47 [i_add2_12_ i_add1_12_] _421_ d_lut_NOR2X1
AAND2X2_25 [i_add2_12_ i_add1_12_] _422_ d_lut_AND2X2
AOAI21X1_36 [_421_ _422_ w_C_12_] _423_ d_lut_OAI21X1
ANAND2X1_38 [_423_ _427_] _364__12_ d_lut_NAND2X1
AINVX1_95 [w_C_13_] _431_ d_lut_INVX1
AOR2X2_15 [i_add2_13_ i_add1_13_] _432_ d_lut_OR2X2
ANAND2X1_39 [i_add2_13_ i_add1_13_] _433_ d_lut_NAND2X1
ANAND3X1_43 [_431_ _433_ _432_] _434_ d_lut_NAND3X1
ANOR2X1_48 [i_add2_13_ i_add1_13_] _428_ d_lut_NOR2X1
AAND2X2_26 [i_add2_13_ i_add1_13_] _429_ d_lut_AND2X2
AOAI21X1_37 [_428_ _429_ w_C_13_] _430_ d_lut_OAI21X1
ANAND2X1_40 [_430_ _434_] _364__13_ d_lut_NAND2X1
AINVX1_96 [w_C_14_] _438_ d_lut_INVX1
AOR2X2_16 [i_add2_14_ i_add1_14_] _439_ d_lut_OR2X2
ANAND2X1_41 [i_add2_14_ i_add1_14_] _440_ d_lut_NAND2X1
ANAND3X1_44 [_438_ _440_ _439_] _441_ d_lut_NAND3X1
ANOR2X1_49 [i_add2_14_ i_add1_14_] _435_ d_lut_NOR2X1
AAND2X2_27 [i_add2_14_ i_add1_14_] _436_ d_lut_AND2X2
AOAI21X1_38 [_435_ _436_ w_C_14_] _437_ d_lut_OAI21X1
ANAND2X1_42 [_437_ _441_] _364__14_ d_lut_NAND2X1
AINVX1_97 [w_C_15_] _445_ d_lut_INVX1
AOR2X2_17 [i_add2_15_ i_add1_15_] _446_ d_lut_OR2X2
ANAND2X1_43 [i_add2_15_ i_add1_15_] _447_ d_lut_NAND2X1
ANAND3X1_45 [_445_ _447_ _446_] _448_ d_lut_NAND3X1
ANOR2X1_50 [i_add2_15_ i_add1_15_] _442_ d_lut_NOR2X1
AAND2X2_28 [i_add2_15_ i_add1_15_] _443_ d_lut_AND2X2
AOAI21X1_39 [_442_ _443_ w_C_15_] _444_ d_lut_OAI21X1
ANAND2X1_44 [_444_ _448_] _364__15_ d_lut_NAND2X1
AINVX1_98 [w_C_16_] _452_ d_lut_INVX1
AOR2X2_18 [i_add2_16_ i_add1_16_] _453_ d_lut_OR2X2
ANAND2X1_45 [i_add2_16_ i_add1_16_] _454_ d_lut_NAND2X1
ANAND3X1_46 [_452_ _454_ _453_] _455_ d_lut_NAND3X1
ANOR2X1_51 [i_add2_16_ i_add1_16_] _449_ d_lut_NOR2X1
AAND2X2_29 [i_add2_16_ i_add1_16_] _450_ d_lut_AND2X2
AOAI21X1_40 [_449_ _450_ w_C_16_] _451_ d_lut_OAI21X1
ANAND2X1_46 [_451_ _455_] _364__16_ d_lut_NAND2X1
AINVX1_99 [w_C_17_] _459_ d_lut_INVX1
AOR2X2_19 [i_add2_17_ i_add1_17_] _460_ d_lut_OR2X2
ANAND2X1_47 [i_add2_17_ i_add1_17_] _461_ d_lut_NAND2X1
ANAND3X1_47 [_459_ _461_ _460_] _462_ d_lut_NAND3X1
ANOR2X1_52 [i_add2_17_ i_add1_17_] _456_ d_lut_NOR2X1
AAND2X2_30 [i_add2_17_ i_add1_17_] _457_ d_lut_AND2X2
AOAI21X1_41 [_456_ _457_ w_C_17_] _458_ d_lut_OAI21X1
ANAND2X1_48 [_458_ _462_] _364__17_ d_lut_NAND2X1
AINVX1_100 [w_C_18_] _466_ d_lut_INVX1
AOR2X2_20 [i_add2_18_ i_add1_18_] _467_ d_lut_OR2X2
ANAND2X1_49 [i_add2_18_ i_add1_18_] _468_ d_lut_NAND2X1
ANAND3X1_48 [_466_ _468_ _467_] _469_ d_lut_NAND3X1
ANOR2X1_53 [i_add2_18_ i_add1_18_] _463_ d_lut_NOR2X1
AAND2X2_31 [i_add2_18_ i_add1_18_] _464_ d_lut_AND2X2
AOAI21X1_42 [_463_ _464_ w_C_18_] _465_ d_lut_OAI21X1
ANAND2X1_50 [_465_ _469_] _364__18_ d_lut_NAND2X1
AINVX1_101 [w_C_19_] _473_ d_lut_INVX1
AOR2X2_21 [i_add2_19_ i_add1_19_] _474_ d_lut_OR2X2
ANAND2X1_51 [i_add2_19_ i_add1_19_] _475_ d_lut_NAND2X1
ANAND3X1_49 [_473_ _475_ _474_] _476_ d_lut_NAND3X1
ANOR2X1_54 [i_add2_19_ i_add1_19_] _470_ d_lut_NOR2X1
AAND2X2_32 [i_add2_19_ i_add1_19_] _471_ d_lut_AND2X2
AOAI21X1_43 [_470_ _471_ w_C_19_] _472_ d_lut_OAI21X1
ANAND2X1_52 [_472_ _476_] _364__19_ d_lut_NAND2X1
AINVX1_102 [w_C_20_] _480_ d_lut_INVX1
AOR2X2_22 [i_add2_20_ i_add1_20_] _481_ d_lut_OR2X2
ANAND2X1_53 [i_add2_20_ i_add1_20_] _482_ d_lut_NAND2X1
ANAND3X1_50 [_480_ _482_ _481_] _483_ d_lut_NAND3X1
ANOR2X1_55 [i_add2_20_ i_add1_20_] _477_ d_lut_NOR2X1
AAND2X2_33 [i_add2_20_ i_add1_20_] _478_ d_lut_AND2X2
AOAI21X1_44 [_477_ _478_ w_C_20_] _479_ d_lut_OAI21X1
ANAND2X1_54 [_479_ _483_] _364__20_ d_lut_NAND2X1
AINVX1_103 [w_C_21_] _487_ d_lut_INVX1
AOR2X2_23 [i_add2_21_ i_add1_21_] _488_ d_lut_OR2X2
ANAND2X1_55 [i_add2_21_ i_add1_21_] _489_ d_lut_NAND2X1
ANAND3X1_51 [_487_ _489_ _488_] _490_ d_lut_NAND3X1
ANOR2X1_56 [i_add2_21_ i_add1_21_] _484_ d_lut_NOR2X1
AAND2X2_34 [i_add2_21_ i_add1_21_] _485_ d_lut_AND2X2
AOAI21X1_45 [_484_ _485_ w_C_21_] _486_ d_lut_OAI21X1
ANAND2X1_56 [_486_ _490_] _364__21_ d_lut_NAND2X1
AINVX1_104 [w_C_22_] _494_ d_lut_INVX1
AOR2X2_24 [i_add2_22_ i_add1_22_] _495_ d_lut_OR2X2
ANAND2X1_57 [i_add2_22_ i_add1_22_] _496_ d_lut_NAND2X1
ANAND3X1_52 [_494_ _496_ _495_] _497_ d_lut_NAND3X1
ANOR2X1_57 [i_add2_22_ i_add1_22_] _491_ d_lut_NOR2X1
AAND2X2_35 [i_add2_22_ i_add1_22_] _492_ d_lut_AND2X2
AOAI21X1_46 [_491_ _492_ w_C_22_] _493_ d_lut_OAI21X1
ANAND2X1_58 [_493_ _497_] _364__22_ d_lut_NAND2X1
AINVX1_105 [w_C_23_] _501_ d_lut_INVX1
AOR2X2_25 [i_add2_23_ i_add1_23_] _502_ d_lut_OR2X2
ANAND2X1_59 [i_add2_23_ i_add1_23_] _503_ d_lut_NAND2X1
ANAND3X1_53 [_501_ _503_ _502_] _504_ d_lut_NAND3X1
ANOR2X1_58 [i_add2_23_ i_add1_23_] _498_ d_lut_NOR2X1
AAND2X2_36 [i_add2_23_ i_add1_23_] _499_ d_lut_AND2X2
AOAI21X1_47 [_498_ _499_ w_C_23_] _500_ d_lut_OAI21X1
ANAND2X1_60 [_500_ _504_] _364__23_ d_lut_NAND2X1
AINVX1_106 [w_C_24_] _508_ d_lut_INVX1
AOR2X2_26 [i_add2_24_ i_add1_24_] _509_ d_lut_OR2X2
ANAND2X1_61 [i_add2_24_ i_add1_24_] _510_ d_lut_NAND2X1
ANAND3X1_54 [_508_ _510_ _509_] _511_ d_lut_NAND3X1
ANOR2X1_59 [i_add2_24_ i_add1_24_] _505_ d_lut_NOR2X1
AAND2X2_37 [i_add2_24_ i_add1_24_] _506_ d_lut_AND2X2
AOAI21X1_48 [_505_ _506_ w_C_24_] _507_ d_lut_OAI21X1
ANAND2X1_62 [_507_ _511_] _364__24_ d_lut_NAND2X1
AINVX1_107 [w_C_25_] _515_ d_lut_INVX1
AOR2X2_27 [i_add2_25_ i_add1_25_] _516_ d_lut_OR2X2
ANAND2X1_63 [i_add2_25_ i_add1_25_] _517_ d_lut_NAND2X1
ANAND3X1_55 [_515_ _517_ _516_] _518_ d_lut_NAND3X1
ANOR2X1_60 [i_add2_25_ i_add1_25_] _512_ d_lut_NOR2X1
AAND2X2_38 [i_add2_25_ i_add1_25_] _513_ d_lut_AND2X2
AOAI21X1_49 [_512_ _513_ w_C_25_] _514_ d_lut_OAI21X1
ANAND2X1_64 [_514_ _518_] _364__25_ d_lut_NAND2X1
AINVX1_108 [w_C_26_] _522_ d_lut_INVX1
AOR2X2_28 [i_add2_26_ i_add1_26_] _523_ d_lut_OR2X2
ANAND2X1_65 [i_add2_26_ i_add1_26_] _524_ d_lut_NAND2X1
ANAND3X1_56 [_522_ _524_ _523_] _525_ d_lut_NAND3X1
ANOR2X1_61 [i_add2_26_ i_add1_26_] _519_ d_lut_NOR2X1
AAND2X2_39 [i_add2_26_ i_add1_26_] _520_ d_lut_AND2X2
AOAI21X1_50 [_519_ _520_ w_C_26_] _521_ d_lut_OAI21X1
ANAND2X1_66 [_521_ _525_] _364__26_ d_lut_NAND2X1
AINVX1_109 [w_C_27_] _529_ d_lut_INVX1
AOR2X2_29 [i_add2_27_ i_add1_27_] _530_ d_lut_OR2X2
ANAND2X1_67 [i_add2_27_ i_add1_27_] _531_ d_lut_NAND2X1
ANAND3X1_57 [_529_ _531_ _530_] _532_ d_lut_NAND3X1
ANOR2X1_62 [i_add2_27_ i_add1_27_] _526_ d_lut_NOR2X1
AAND2X2_40 [i_add2_27_ i_add1_27_] _527_ d_lut_AND2X2
AOAI21X1_51 [_526_ _527_ w_C_27_] _528_ d_lut_OAI21X1
ANAND2X1_68 [_528_ _532_] _364__27_ d_lut_NAND2X1
AINVX1_110 [w_C_28_] _536_ d_lut_INVX1
AOR2X2_30 [i_add2_28_ i_add1_28_] _537_ d_lut_OR2X2
ANAND2X1_69 [i_add2_28_ i_add1_28_] _538_ d_lut_NAND2X1
ANAND3X1_58 [_536_ _538_ _537_] _539_ d_lut_NAND3X1
ANOR2X1_63 [i_add2_28_ i_add1_28_] _533_ d_lut_NOR2X1
AAND2X2_41 [i_add2_28_ i_add1_28_] _534_ d_lut_AND2X2
AOAI21X1_52 [_533_ _534_ w_C_28_] _535_ d_lut_OAI21X1
ANAND2X1_70 [_535_ _539_] _364__28_ d_lut_NAND2X1
AINVX1_111 [w_C_29_] _543_ d_lut_INVX1
AOR2X2_31 [i_add2_29_ i_add1_29_] _544_ d_lut_OR2X2
ANAND2X1_71 [i_add2_29_ i_add1_29_] _545_ d_lut_NAND2X1
ANAND3X1_59 [_543_ _545_ _544_] _546_ d_lut_NAND3X1
ANOR2X1_64 [i_add2_29_ i_add1_29_] _540_ d_lut_NOR2X1
AAND2X2_42 [i_add2_29_ i_add1_29_] _541_ d_lut_AND2X2
AOAI21X1_53 [_540_ _541_ w_C_29_] _542_ d_lut_OAI21X1
ANAND2X1_72 [_542_ _546_] _364__29_ d_lut_NAND2X1
AINVX1_112 [w_C_30_] _550_ d_lut_INVX1
AOR2X2_32 [i_add2_30_ i_add1_30_] _551_ d_lut_OR2X2
ANAND2X1_73 [i_add2_30_ i_add1_30_] _552_ d_lut_NAND2X1
ANAND3X1_60 [_550_ _552_ _551_] _553_ d_lut_NAND3X1
ANOR2X1_65 [i_add2_30_ i_add1_30_] _547_ d_lut_NOR2X1
AAND2X2_43 [i_add2_30_ i_add1_30_] _548_ d_lut_AND2X2
AOAI21X1_54 [_547_ _548_ w_C_30_] _549_ d_lut_OAI21X1
ANAND2X1_74 [_549_ _553_] _364__30_ d_lut_NAND2X1
AINVX1_113 [w_C_31_] _557_ d_lut_INVX1
AOR2X2_33 [i_add2_31_ i_add1_31_] _558_ d_lut_OR2X2
ANAND2X1_75 [i_add2_31_ i_add1_31_] _559_ d_lut_NAND2X1
ANAND3X1_61 [_557_ _559_ _558_] _560_ d_lut_NAND3X1
ANOR2X1_66 [i_add2_31_ i_add1_31_] _554_ d_lut_NOR2X1
AAND2X2_44 [i_add2_31_ i_add1_31_] _555_ d_lut_AND2X2
AOAI21X1_55 [_554_ _555_ w_C_31_] _556_ d_lut_OAI21X1
ANAND2X1_76 [_556_ _560_] _364__31_ d_lut_NAND2X1
AINVX1_114 [w_C_32_] _564_ d_lut_INVX1
AOR2X2_34 [i_add2_32_ i_add1_32_] _565_ d_lut_OR2X2
ANAND2X1_77 [i_add2_32_ i_add1_32_] _566_ d_lut_NAND2X1
ANAND3X1_62 [_564_ _566_ _565_] _567_ d_lut_NAND3X1
ANOR2X1_67 [i_add2_32_ i_add1_32_] _561_ d_lut_NOR2X1
AAND2X2_45 [i_add2_32_ i_add1_32_] _562_ d_lut_AND2X2
AOAI21X1_56 [_561_ _562_ w_C_32_] _563_ d_lut_OAI21X1
ANAND2X1_78 [_563_ _567_] _364__32_ d_lut_NAND2X1
AINVX1_115 [w_C_33_] _571_ d_lut_INVX1
AOR2X2_35 [i_add2_33_ i_add1_33_] _572_ d_lut_OR2X2
ANAND2X1_79 [i_add2_33_ i_add1_33_] _573_ d_lut_NAND2X1
ANAND3X1_63 [_571_ _573_ _572_] _574_ d_lut_NAND3X1
ANOR2X1_68 [i_add2_33_ i_add1_33_] _568_ d_lut_NOR2X1
AAND2X2_46 [i_add2_33_ i_add1_33_] _569_ d_lut_AND2X2
AOAI21X1_57 [_568_ _569_ w_C_33_] _570_ d_lut_OAI21X1
ANAND2X1_80 [_570_ _574_] _364__33_ d_lut_NAND2X1
AINVX1_116 [w_C_34_] _578_ d_lut_INVX1
AOR2X2_36 [i_add2_34_ i_add1_34_] _579_ d_lut_OR2X2
ANAND2X1_81 [i_add2_34_ i_add1_34_] _580_ d_lut_NAND2X1
ANAND3X1_64 [_578_ _580_ _579_] _581_ d_lut_NAND3X1
ANOR2X1_69 [i_add2_34_ i_add1_34_] _575_ d_lut_NOR2X1
AAND2X2_47 [i_add2_34_ i_add1_34_] _576_ d_lut_AND2X2
AOAI21X1_58 [_575_ _576_ w_C_34_] _577_ d_lut_OAI21X1
ANAND2X1_82 [_577_ _581_] _364__34_ d_lut_NAND2X1
AINVX1_117 [w_C_35_] _585_ d_lut_INVX1
AOR2X2_37 [i_add2_35_ i_add1_35_] _586_ d_lut_OR2X2
ANAND2X1_83 [i_add2_35_ i_add1_35_] _587_ d_lut_NAND2X1
ANAND3X1_65 [_585_ _587_ _586_] _588_ d_lut_NAND3X1
ANOR2X1_70 [i_add2_35_ i_add1_35_] _582_ d_lut_NOR2X1
AAND2X2_48 [i_add2_35_ i_add1_35_] _583_ d_lut_AND2X2
AOAI21X1_59 [_582_ _583_ w_C_35_] _584_ d_lut_OAI21X1
ANAND2X1_84 [_584_ _588_] _364__35_ d_lut_NAND2X1
AINVX1_118 [w_C_36_] _592_ d_lut_INVX1
AOR2X2_38 [i_add2_36_ i_add1_36_] _593_ d_lut_OR2X2
ANAND2X1_85 [i_add2_36_ i_add1_36_] _594_ d_lut_NAND2X1
ANAND3X1_66 [_592_ _594_ _593_] _595_ d_lut_NAND3X1
ANOR2X1_71 [i_add2_36_ i_add1_36_] _589_ d_lut_NOR2X1
AAND2X2_49 [i_add2_36_ i_add1_36_] _590_ d_lut_AND2X2
AOAI21X1_60 [_589_ _590_ w_C_36_] _591_ d_lut_OAI21X1
ANAND2X1_86 [_591_ _595_] _364__36_ d_lut_NAND2X1
AINVX1_119 [w_C_37_] _599_ d_lut_INVX1
AOR2X2_39 [i_add2_37_ i_add1_37_] _600_ d_lut_OR2X2
ANAND2X1_87 [i_add2_37_ i_add1_37_] _601_ d_lut_NAND2X1
ANAND3X1_67 [_599_ _601_ _600_] _602_ d_lut_NAND3X1
ANOR2X1_72 [i_add2_37_ i_add1_37_] _596_ d_lut_NOR2X1
AAND2X2_50 [i_add2_37_ i_add1_37_] _597_ d_lut_AND2X2
AOAI21X1_61 [_596_ _597_ w_C_37_] _598_ d_lut_OAI21X1
ANAND2X1_88 [_598_ _602_] _364__37_ d_lut_NAND2X1
AINVX1_120 [w_C_38_] _606_ d_lut_INVX1
AOR2X2_40 [i_add2_38_ i_add1_38_] _607_ d_lut_OR2X2