* XSpice netlist created from SPICE and liberty sources by spi2xspice.py
*SPICE netlist created from BLIF module CSkipA_50bit by blif2BSpice
.subckt CSkipA_50bit a_vdd a_gnd a_i_add_term1_0_ a_i_add_term1_1_ a_i_add_term1_2_ a_i_add_term1_3_ a_i_add_term1_4_ a_i_add_term1_5_ a_i_add_term1_6_ a_i_add_term1_7_ a_i_add_term1_8_ a_i_add_term1_9_ a_i_add_term1_10_ a_i_add_term1_11_ a_i_add_term1_12_ a_i_add_term1_13_ a_i_add_term1_14_ a_i_add_term1_15_ a_i_add_term1_16_ a_i_add_term1_17_ a_i_add_term1_18_ a_i_add_term1_19_ a_i_add_term1_20_ a_i_add_term1_21_ a_i_add_term1_22_ a_i_add_term1_23_ a_i_add_term1_24_ a_i_add_term1_25_ a_i_add_term1_26_ a_i_add_term1_27_ a_i_add_term1_28_ a_i_add_term1_29_ a_i_add_term1_30_ a_i_add_term1_31_ a_i_add_term1_32_ a_i_add_term1_33_ a_i_add_term1_34_ a_i_add_term1_35_ a_i_add_term1_36_ a_i_add_term1_37_ a_i_add_term1_38_ a_i_add_term1_39_ a_i_add_term1_40_ a_i_add_term1_41_ a_i_add_term1_42_ a_i_add_term1_43_ a_i_add_term1_44_ a_i_add_term1_45_ a_i_add_term1_46_ a_i_add_term1_47_ a_i_add_term1_48_ a_i_add_term1_49_ a_i_add_term2_0_ a_i_add_term2_1_ a_i_add_term2_2_ a_i_add_term2_3_ a_i_add_term2_4_ a_i_add_term2_5_ a_i_add_term2_6_ a_i_add_term2_7_ a_i_add_term2_8_ a_i_add_term2_9_ a_i_add_term2_10_ a_i_add_term2_11_ a_i_add_term2_12_ a_i_add_term2_13_ a_i_add_term2_14_ a_i_add_term2_15_ a_i_add_term2_16_ a_i_add_term2_17_ a_i_add_term2_18_ a_i_add_term2_19_ a_i_add_term2_20_ a_i_add_term2_21_ a_i_add_term2_22_ a_i_add_term2_23_ a_i_add_term2_24_ a_i_add_term2_25_ a_i_add_term2_26_ a_i_add_term2_27_ a_i_add_term2_28_ a_i_add_term2_29_ a_i_add_term2_30_ a_i_add_term2_31_ a_i_add_term2_32_ a_i_add_term2_33_ a_i_add_term2_34_ a_i_add_term2_35_ a_i_add_term2_36_ a_i_add_term2_37_ a_i_add_term2_38_ a_i_add_term2_39_ a_i_add_term2_40_ a_i_add_term2_41_ a_i_add_term2_42_ a_i_add_term2_43_ a_i_add_term2_44_ a_i_add_term2_45_ a_i_add_term2_46_ a_i_add_term2_47_ a_i_add_term2_48_ a_i_add_term2_49_ a_sum_0_ a_sum_1_ a_sum_2_ a_sum_3_ a_sum_4_ a_sum_5_ a_sum_6_ a_sum_7_ a_sum_8_ a_sum_9_ a_sum_10_ a_sum_11_ a_sum_12_ a_sum_13_ a_sum_14_ a_sum_15_ a_sum_16_ a_sum_17_ a_sum_18_ a_sum_19_ a_sum_20_ a_sum_21_ a_sum_22_ a_sum_23_ a_sum_24_ a_sum_25_ a_sum_26_ a_sum_27_ a_sum_28_ a_sum_29_ a_sum_30_ a_sum_31_ a_sum_32_ a_sum_33_ a_sum_34_ a_sum_35_ a_sum_36_ a_sum_37_ a_sum_38_ a_sum_39_ a_sum_40_ a_sum_41_ a_sum_42_ a_sum_43_ a_sum_44_ a_sum_45_ a_sum_46_ a_sum_47_ a_sum_48_ a_sum_49_ a_cout
ANAND3X1_1 [_337_ _339_ _338_] _340_ d_lut_NAND3X1
ANOR2X1_1 [i_add_term2_15_ i_add_term1_15_] _334_ d_lut_NOR2X1
AAND2X2_1 [i_add_term2_15_ i_add_term1_15_] _335_ d_lut_AND2X2
AOAI21X1_1 [_334_ _335_ _11__3_] _336_ d_lut_OAI21X1
ANAND2X1_1 [_336_ _340_] _0__15_ d_lut_NAND2X1
AOAI21X1_2 [_337_ _334_ _339_] _10_ d_lut_OAI21X1
AINVX1_1 [w_cout_4_] _344_ d_lut_INVX1
AOR2X2_1 [i_add_term2_16_ i_add_term1_16_] _345_ d_lut_OR2X2
ANAND2X1_2 [i_add_term2_16_ i_add_term1_16_] _346_ d_lut_NAND2X1
ANAND3X1_2 [_344_ _346_ _345_] _347_ d_lut_NAND3X1
ANOR2X1_2 [i_add_term2_16_ i_add_term1_16_] _341_ d_lut_NOR2X1
AAND2X2_2 [i_add_term2_16_ i_add_term1_16_] _342_ d_lut_AND2X2
AOAI21X1_3 [_341_ _342_ w_cout_4_] _343_ d_lut_OAI21X1
ANAND2X1_3 [_343_ _347_] _0__16_ d_lut_NAND2X1
AOAI21X1_4 [_344_ _341_ _346_] _14__1_ d_lut_OAI21X1
AINVX1_2 [_14__1_] _351_ d_lut_INVX1
AOR2X2_2 [i_add_term2_17_ i_add_term1_17_] _352_ d_lut_OR2X2
ANAND2X1_4 [i_add_term2_17_ i_add_term1_17_] _353_ d_lut_NAND2X1
ANAND3X1_3 [_351_ _353_ _352_] _354_ d_lut_NAND3X1
ANOR2X1_3 [i_add_term2_17_ i_add_term1_17_] _348_ d_lut_NOR2X1
AAND2X2_3 [i_add_term2_17_ i_add_term1_17_] _349_ d_lut_AND2X2
AOAI21X1_5 [_348_ _349_ _14__1_] _350_ d_lut_OAI21X1
ANAND2X1_5 [_350_ _354_] _0__17_ d_lut_NAND2X1
AOAI21X1_6 [_351_ _348_ _353_] _14__2_ d_lut_OAI21X1
AINVX1_3 [_14__2_] _358_ d_lut_INVX1
AOR2X2_3 [i_add_term2_18_ i_add_term1_18_] _359_ d_lut_OR2X2
ANAND2X1_6 [i_add_term2_18_ i_add_term1_18_] _360_ d_lut_NAND2X1
ANAND3X1_4 [_358_ _360_ _359_] _361_ d_lut_NAND3X1
ANOR2X1_4 [i_add_term2_18_ i_add_term1_18_] _355_ d_lut_NOR2X1
AAND2X2_4 [i_add_term2_18_ i_add_term1_18_] _356_ d_lut_AND2X2
AOAI21X1_7 [_355_ _356_ _14__2_] _357_ d_lut_OAI21X1
ANAND2X1_7 [_357_ _361_] _0__18_ d_lut_NAND2X1
AOAI21X1_8 [_358_ _355_ _360_] _14__3_ d_lut_OAI21X1
AINVX1_4 [_14__3_] _365_ d_lut_INVX1
AOR2X2_4 [i_add_term2_19_ i_add_term1_19_] _366_ d_lut_OR2X2
ANAND2X1_8 [i_add_term2_19_ i_add_term1_19_] _367_ d_lut_NAND2X1
ANAND3X1_5 [_365_ _367_ _366_] _368_ d_lut_NAND3X1
ANOR2X1_5 [i_add_term2_19_ i_add_term1_19_] _362_ d_lut_NOR2X1
AAND2X2_5 [i_add_term2_19_ i_add_term1_19_] _363_ d_lut_AND2X2
AOAI21X1_9 [_362_ _363_ _14__3_] _364_ d_lut_OAI21X1
ANAND2X1_9 [_364_ _368_] _0__19_ d_lut_NAND2X1
AOAI21X1_10 [_365_ _362_ _367_] _13_ d_lut_OAI21X1
AINVX1_5 [w_cout_5_] _372_ d_lut_INVX1
AOR2X2_5 [i_add_term2_20_ i_add_term1_20_] _373_ d_lut_OR2X2
ANAND2X1_10 [i_add_term2_20_ i_add_term1_20_] _374_ d_lut_NAND2X1
ANAND3X1_6 [_372_ _374_ _373_] _375_ d_lut_NAND3X1
ANOR2X1_6 [i_add_term2_20_ i_add_term1_20_] _369_ d_lut_NOR2X1
AAND2X2_6 [i_add_term2_20_ i_add_term1_20_] _370_ d_lut_AND2X2
AOAI21X1_11 [_369_ _370_ w_cout_5_] _371_ d_lut_OAI21X1
ANAND2X1_11 [_371_ _375_] _0__20_ d_lut_NAND2X1
AOAI21X1_12 [_372_ _369_ _374_] _17__1_ d_lut_OAI21X1
AINVX1_6 [_17__1_] _379_ d_lut_INVX1
AOR2X2_6 [i_add_term2_21_ i_add_term1_21_] _380_ d_lut_OR2X2
ANAND2X1_12 [i_add_term2_21_ i_add_term1_21_] _381_ d_lut_NAND2X1
ANAND3X1_7 [_379_ _381_ _380_] _382_ d_lut_NAND3X1
ANOR2X1_7 [i_add_term2_21_ i_add_term1_21_] _376_ d_lut_NOR2X1
AAND2X2_7 [i_add_term2_21_ i_add_term1_21_] _377_ d_lut_AND2X2
AOAI21X1_13 [_376_ _377_ _17__1_] _378_ d_lut_OAI21X1
ANAND2X1_13 [_378_ _382_] _0__21_ d_lut_NAND2X1
AOAI21X1_14 [_379_ _376_ _381_] _17__2_ d_lut_OAI21X1
AINVX1_7 [_17__2_] _386_ d_lut_INVX1
AOR2X2_7 [i_add_term2_22_ i_add_term1_22_] _387_ d_lut_OR2X2
ANAND2X1_14 [i_add_term2_22_ i_add_term1_22_] _388_ d_lut_NAND2X1
ANAND3X1_8 [_386_ _388_ _387_] _389_ d_lut_NAND3X1
ANOR2X1_8 [i_add_term2_22_ i_add_term1_22_] _383_ d_lut_NOR2X1
AAND2X2_8 [i_add_term2_22_ i_add_term1_22_] _384_ d_lut_AND2X2
AOAI21X1_15 [_383_ _384_ _17__2_] _385_ d_lut_OAI21X1
ANAND2X1_15 [_385_ _389_] _0__22_ d_lut_NAND2X1
AOAI21X1_16 [_386_ _383_ _388_] _17__3_ d_lut_OAI21X1
AINVX1_8 [_17__3_] _393_ d_lut_INVX1
AOR2X2_8 [i_add_term2_23_ i_add_term1_23_] _394_ d_lut_OR2X2
ANAND2X1_16 [i_add_term2_23_ i_add_term1_23_] _395_ d_lut_NAND2X1
ANAND3X1_9 [_393_ _395_ _394_] _396_ d_lut_NAND3X1
ANOR2X1_9 [i_add_term2_23_ i_add_term1_23_] _390_ d_lut_NOR2X1
AAND2X2_9 [i_add_term2_23_ i_add_term1_23_] _391_ d_lut_AND2X2
AOAI21X1_17 [_390_ _391_ _17__3_] _392_ d_lut_OAI21X1
ANAND2X1_17 [_392_ _396_] _0__23_ d_lut_NAND2X1
AOAI21X1_18 [_393_ _390_ _395_] _16_ d_lut_OAI21X1
AINVX1_9 [w_cout_6_] _400_ d_lut_INVX1
AOR2X2_9 [i_add_term2_24_ i_add_term1_24_] _401_ d_lut_OR2X2
ANAND2X1_18 [i_add_term2_24_ i_add_term1_24_] _402_ d_lut_NAND2X1
ANAND3X1_10 [_400_ _402_ _401_] _403_ d_lut_NAND3X1
ANOR2X1_10 [i_add_term2_24_ i_add_term1_24_] _397_ d_lut_NOR2X1
AAND2X2_10 [i_add_term2_24_ i_add_term1_24_] _398_ d_lut_AND2X2
AOAI21X1_19 [_397_ _398_ w_cout_6_] _399_ d_lut_OAI21X1
ANAND2X1_19 [_399_ _403_] _0__24_ d_lut_NAND2X1
AOAI21X1_20 [_400_ _397_ _402_] _20__1_ d_lut_OAI21X1
AINVX1_10 [_20__1_] _407_ d_lut_INVX1
AOR2X2_10 [i_add_term2_25_ i_add_term1_25_] _408_ d_lut_OR2X2
ANAND2X1_20 [i_add_term2_25_ i_add_term1_25_] _409_ d_lut_NAND2X1
ANAND3X1_11 [_407_ _409_ _408_] _410_ d_lut_NAND3X1
ANOR2X1_11 [i_add_term2_25_ i_add_term1_25_] _404_ d_lut_NOR2X1
AAND2X2_11 [i_add_term2_25_ i_add_term1_25_] _405_ d_lut_AND2X2
AOAI21X1_21 [_404_ _405_ _20__1_] _406_ d_lut_OAI21X1
ANAND2X1_21 [_406_ _410_] _0__25_ d_lut_NAND2X1
AOAI21X1_22 [_407_ _404_ _409_] _20__2_ d_lut_OAI21X1
AINVX1_11 [_20__2_] _414_ d_lut_INVX1
AOR2X2_11 [i_add_term2_26_ i_add_term1_26_] _415_ d_lut_OR2X2
ANAND2X1_22 [i_add_term2_26_ i_add_term1_26_] _416_ d_lut_NAND2X1
ANAND3X1_12 [_414_ _416_ _415_] _417_ d_lut_NAND3X1
ANOR2X1_12 [i_add_term2_26_ i_add_term1_26_] _411_ d_lut_NOR2X1
AAND2X2_12 [i_add_term2_26_ i_add_term1_26_] _412_ d_lut_AND2X2
AOAI21X1_23 [_411_ _412_ _20__2_] _413_ d_lut_OAI21X1
ANAND2X1_23 [_413_ _417_] _0__26_ d_lut_NAND2X1
AOAI21X1_24 [_414_ _411_ _416_] _20__3_ d_lut_OAI21X1
AINVX1_12 [_20__3_] _421_ d_lut_INVX1
AOR2X2_12 [i_add_term2_27_ i_add_term1_27_] _422_ d_lut_OR2X2
ANAND2X1_24 [i_add_term2_27_ i_add_term1_27_] _423_ d_lut_NAND2X1
ANAND3X1_13 [_421_ _423_ _422_] _424_ d_lut_NAND3X1
ANOR2X1_13 [i_add_term2_27_ i_add_term1_27_] _418_ d_lut_NOR2X1
AAND2X2_13 [i_add_term2_27_ i_add_term1_27_] _419_ d_lut_AND2X2
AOAI21X1_25 [_418_ _419_ _20__3_] _420_ d_lut_OAI21X1
ANAND2X1_25 [_420_ _424_] _0__27_ d_lut_NAND2X1
AOAI21X1_26 [_421_ _418_ _423_] _19_ d_lut_OAI21X1
AINVX1_13 [w_cout_7_] _428_ d_lut_INVX1
AOR2X2_13 [i_add_term2_28_ i_add_term1_28_] _429_ d_lut_OR2X2
ANAND2X1_26 [i_add_term2_28_ i_add_term1_28_] _430_ d_lut_NAND2X1
ANAND3X1_14 [_428_ _430_ _429_] _431_ d_lut_NAND3X1
ANOR2X1_14 [i_add_term2_28_ i_add_term1_28_] _425_ d_lut_NOR2X1
AAND2X2_14 [i_add_term2_28_ i_add_term1_28_] _426_ d_lut_AND2X2
AOAI21X1_27 [_425_ _426_ w_cout_7_] _427_ d_lut_OAI21X1
ANAND2X1_27 [_427_ _431_] _0__28_ d_lut_NAND2X1
AOAI21X1_28 [_428_ _425_ _430_] _23__1_ d_lut_OAI21X1
AINVX1_14 [_23__1_] _435_ d_lut_INVX1
AOR2X2_14 [i_add_term2_29_ i_add_term1_29_] _436_ d_lut_OR2X2
ANAND2X1_28 [i_add_term2_29_ i_add_term1_29_] _437_ d_lut_NAND2X1
ANAND3X1_15 [_435_ _437_ _436_] _438_ d_lut_NAND3X1
ANOR2X1_15 [i_add_term2_29_ i_add_term1_29_] _432_ d_lut_NOR2X1
AAND2X2_15 [i_add_term2_29_ i_add_term1_29_] _433_ d_lut_AND2X2
AOAI21X1_29 [_432_ _433_ _23__1_] _434_ d_lut_OAI21X1
ANAND2X1_29 [_434_ _438_] _0__29_ d_lut_NAND2X1
AOAI21X1_30 [_435_ _432_ _437_] _23__2_ d_lut_OAI21X1
AINVX1_15 [_23__2_] _442_ d_lut_INVX1
AOR2X2_15 [i_add_term2_30_ i_add_term1_30_] _443_ d_lut_OR2X2
ANAND2X1_30 [i_add_term2_30_ i_add_term1_30_] _444_ d_lut_NAND2X1
ANAND3X1_16 [_442_ _444_ _443_] _445_ d_lut_NAND3X1
ANOR2X1_16 [i_add_term2_30_ i_add_term1_30_] _439_ d_lut_NOR2X1
AAND2X2_16 [i_add_term2_30_ i_add_term1_30_] _440_ d_lut_AND2X2
AOAI21X1_31 [_439_ _440_ _23__2_] _441_ d_lut_OAI21X1
ANAND2X1_31 [_441_ _445_] _0__30_ d_lut_NAND2X1
AOAI21X1_32 [_442_ _439_ _444_] _23__3_ d_lut_OAI21X1
AINVX1_16 [_23__3_] _449_ d_lut_INVX1
AOR2X2_16 [i_add_term2_31_ i_add_term1_31_] _450_ d_lut_OR2X2
ANAND2X1_32 [i_add_term2_31_ i_add_term1_31_] _451_ d_lut_NAND2X1
ANAND3X1_17 [_449_ _451_ _450_] _452_ d_lut_NAND3X1
ANOR2X1_17 [i_add_term2_31_ i_add_term1_31_] _446_ d_lut_NOR2X1
AAND2X2_17 [i_add_term2_31_ i_add_term1_31_] _447_ d_lut_AND2X2
AOAI21X1_33 [_446_ _447_ _23__3_] _448_ d_lut_OAI21X1
ANAND2X1_33 [_448_ _452_] _0__31_ d_lut_NAND2X1
AOAI21X1_34 [_449_ _446_ _451_] _22_ d_lut_OAI21X1
AINVX1_17 [w_cout_8_] _456_ d_lut_INVX1
AOR2X2_17 [i_add_term2_32_ i_add_term1_32_] _457_ d_lut_OR2X2
ANAND2X1_34 [i_add_term2_32_ i_add_term1_32_] _458_ d_lut_NAND2X1
ANAND3X1_18 [_456_ _458_ _457_] _459_ d_lut_NAND3X1
ANOR2X1_18 [i_add_term2_32_ i_add_term1_32_] _453_ d_lut_NOR2X1
AAND2X2_18 [i_add_term2_32_ i_add_term1_32_] _454_ d_lut_AND2X2
AOAI21X1_35 [_453_ _454_ w_cout_8_] _455_ d_lut_OAI21X1
ANAND2X1_35 [_455_ _459_] _0__32_ d_lut_NAND2X1
AOAI21X1_36 [_456_ _453_ _458_] _26__1_ d_lut_OAI21X1
AINVX1_18 [_26__1_] _463_ d_lut_INVX1
AOR2X2_18 [i_add_term2_33_ i_add_term1_33_] _464_ d_lut_OR2X2
ANAND2X1_36 [i_add_term2_33_ i_add_term1_33_] _465_ d_lut_NAND2X1
ANAND3X1_19 [_463_ _465_ _464_] _466_ d_lut_NAND3X1
ANOR2X1_19 [i_add_term2_33_ i_add_term1_33_] _460_ d_lut_NOR2X1
AAND2X2_19 [i_add_term2_33_ i_add_term1_33_] _461_ d_lut_AND2X2
AOAI21X1_37 [_460_ _461_ _26__1_] _462_ d_lut_OAI21X1
ANAND2X1_37 [_462_ _466_] _0__33_ d_lut_NAND2X1
AOAI21X1_38 [_463_ _460_ _465_] _26__2_ d_lut_OAI21X1
AINVX1_19 [_26__2_] _470_ d_lut_INVX1
AOR2X2_19 [i_add_term2_34_ i_add_term1_34_] _471_ d_lut_OR2X2
ANAND2X1_38 [i_add_term2_34_ i_add_term1_34_] _472_ d_lut_NAND2X1
ANAND3X1_20 [_470_ _472_ _471_] _473_ d_lut_NAND3X1
ANOR2X1_20 [i_add_term2_34_ i_add_term1_34_] _467_ d_lut_NOR2X1
AAND2X2_20 [i_add_term2_34_ i_add_term1_34_] _468_ d_lut_AND2X2
AOAI21X1_39 [_467_ _468_ _26__2_] _469_ d_lut_OAI21X1
ANAND2X1_39 [_469_ _473_] _0__34_ d_lut_NAND2X1
AOAI21X1_40 [_470_ _467_ _472_] _26__3_ d_lut_OAI21X1
AINVX1_20 [_26__3_] _477_ d_lut_INVX1
AOR2X2_20 [i_add_term2_35_ i_add_term1_35_] _478_ d_lut_OR2X2
ANAND2X1_40 [i_add_term2_35_ i_add_term1_35_] _479_ d_lut_NAND2X1
ANAND3X1_21 [_477_ _479_ _478_] _480_ d_lut_NAND3X1
ANOR2X1_21 [i_add_term2_35_ i_add_term1_35_] _474_ d_lut_NOR2X1
AAND2X2_21 [i_add_term2_35_ i_add_term1_35_] _475_ d_lut_AND2X2
AOAI21X1_41 [_474_ _475_ _26__3_] _476_ d_lut_OAI21X1
ANAND2X1_41 [_476_ _480_] _0__35_ d_lut_NAND2X1
AOAI21X1_42 [_477_ _474_ _479_] _25_ d_lut_OAI21X1
AINVX1_21 [w_cout_9_] _484_ d_lut_INVX1
AOR2X2_21 [i_add_term2_36_ i_add_term1_36_] _485_ d_lut_OR2X2
ANAND2X1_42 [i_add_term2_36_ i_add_term1_36_] _486_ d_lut_NAND2X1
ANAND3X1_22 [_484_ _486_ _485_] _487_ d_lut_NAND3X1
ANOR2X1_22 [i_add_term2_36_ i_add_term1_36_] _481_ d_lut_NOR2X1
AAND2X2_22 [i_add_term2_36_ i_add_term1_36_] _482_ d_lut_AND2X2
AOAI21X1_43 [_481_ _482_ w_cout_9_] _483_ d_lut_OAI21X1
ANAND2X1_43 [_483_ _487_] _0__36_ d_lut_NAND2X1
AOAI21X1_44 [_484_ _481_ _486_] _29__1_ d_lut_OAI21X1
AINVX1_22 [_29__1_] _491_ d_lut_INVX1
AOR2X2_22 [i_add_term2_37_ i_add_term1_37_] _492_ d_lut_OR2X2
ANAND2X1_44 [i_add_term2_37_ i_add_term1_37_] _493_ d_lut_NAND2X1
ANAND3X1_23 [_491_ _493_ _492_] _494_ d_lut_NAND3X1
ANOR2X1_23 [i_add_term2_37_ i_add_term1_37_] _488_ d_lut_NOR2X1
AAND2X2_23 [i_add_term2_37_ i_add_term1_37_] _489_ d_lut_AND2X2
AOAI21X1_45 [_488_ _489_ _29__1_] _490_ d_lut_OAI21X1
ANAND2X1_45 [_490_ _494_] _0__37_ d_lut_NAND2X1
AOAI21X1_46 [_491_ _488_ _493_] _29__2_ d_lut_OAI21X1
AINVX1_23 [_29__2_] _498_ d_lut_INVX1
AOR2X2_23 [i_add_term2_38_ i_add_term1_38_] _499_ d_lut_OR2X2
ANAND2X1_46 [i_add_term2_38_ i_add_term1_38_] _500_ d_lut_NAND2X1
ANAND3X1_24 [_498_ _500_ _499_] _501_ d_lut_NAND3X1
ANOR2X1_24 [i_add_term2_38_ i_add_term1_38_] _495_ d_lut_NOR2X1
AAND2X2_24 [i_add_term2_38_ i_add_term1_38_] _496_ d_lut_AND2X2
AOAI21X1_47 [_495_ _496_ _29__2_] _497_ d_lut_OAI21X1
ANAND2X1_47 [_497_ _501_] _0__38_ d_lut_NAND2X1
AOAI21X1_48 [_498_ _495_ _500_] _29__3_ d_lut_OAI21X1
AINVX1_24 [_29__3_] _505_ d_lut_INVX1
AOR2X2_24 [i_add_term2_39_ i_add_term1_39_] _506_ d_lut_OR2X2
ANAND2X1_48 [i_add_term2_39_ i_add_term1_39_] _507_ d_lut_NAND2X1
ANAND3X1_25 [_505_ _507_ _506_] _508_ d_lut_NAND3X1
ANOR2X1_25 [i_add_term2_39_ i_add_term1_39_] _502_ d_lut_NOR2X1
AAND2X2_25 [i_add_term2_39_ i_add_term1_39_] _503_ d_lut_AND2X2
AOAI21X1_49 [_502_ _503_ _29__3_] _504_ d_lut_OAI21X1
ANAND2X1_49 [_504_ _508_] _0__39_ d_lut_NAND2X1
AOAI21X1_50 [_505_ _502_ _507_] _28_ d_lut_OAI21X1
AINVX1_25 [w_cout_10_] _512_ d_lut_INVX1
AOR2X2_25 [i_add_term2_40_ i_add_term1_40_] _513_ d_lut_OR2X2
ANAND2X1_50 [i_add_term2_40_ i_add_term1_40_] _514_ d_lut_NAND2X1
ANAND3X1_26 [_512_ _514_ _513_] _515_ d_lut_NAND3X1
ANOR2X1_26 [i_add_term2_40_ i_add_term1_40_] _509_ d_lut_NOR2X1
AAND2X2_26 [i_add_term2_40_ i_add_term1_40_] _510_ d_lut_AND2X2
AOAI21X1_51 [_509_ _510_ w_cout_10_] _511_ d_lut_OAI21X1
ANAND2X1_51 [_511_ _515_] _0__40_ d_lut_NAND2X1
AOAI21X1_52 [_512_ _509_ _514_] _32__1_ d_lut_OAI21X1
AINVX1_26 [_32__1_] _519_ d_lut_INVX1
AOR2X2_26 [i_add_term2_41_ i_add_term1_41_] _520_ d_lut_OR2X2
ANAND2X1_52 [i_add_term2_41_ i_add_term1_41_] _521_ d_lut_NAND2X1
ANAND3X1_27 [_519_ _521_ _520_] _522_ d_lut_NAND3X1
ANOR2X1_27 [i_add_term2_41_ i_add_term1_41_] _516_ d_lut_NOR2X1
AAND2X2_27 [i_add_term2_41_ i_add_term1_41_] _517_ d_lut_AND2X2
AOAI21X1_53 [_516_ _517_ _32__1_] _518_ d_lut_OAI21X1
ANAND2X1_53 [_518_ _522_] _0__41_ d_lut_NAND2X1
AOAI21X1_54 [_519_ _516_ _521_] _32__2_ d_lut_OAI21X1
AINVX1_27 [_32__2_] _526_ d_lut_INVX1
AOR2X2_27 [i_add_term2_42_ i_add_term1_42_] _527_ d_lut_OR2X2
ANAND2X1_54 [i_add_term2_42_ i_add_term1_42_] _528_ d_lut_NAND2X1
ANAND3X1_28 [_526_ _528_ _527_] _529_ d_lut_NAND3X1
ANOR2X1_28 [i_add_term2_42_ i_add_term1_42_] _523_ d_lut_NOR2X1
AAND2X2_28 [i_add_term2_42_ i_add_term1_42_] _524_ d_lut_AND2X2
AOAI21X1_55 [_523_ _524_ _32__2_] _525_ d_lut_OAI21X1
ANAND2X1_55 [_525_ _529_] _0__42_ d_lut_NAND2X1
AOAI21X1_56 [_526_ _523_ _528_] _32__3_ d_lut_OAI21X1
AINVX1_28 [_32__3_] _533_ d_lut_INVX1
AOR2X2_28 [i_add_term2_43_ i_add_term1_43_] _534_ d_lut_OR2X2
ANAND2X1_56 [i_add_term2_43_ i_add_term1_43_] _535_ d_lut_NAND2X1
ANAND3X1_29 [_533_ _535_ _534_] _536_ d_lut_NAND3X1
ANOR2X1_29 [i_add_term2_43_ i_add_term1_43_] _530_ d_lut_NOR2X1
AAND2X2_29 [i_add_term2_43_ i_add_term1_43_] _531_ d_lut_AND2X2
AOAI21X1_57 [_530_ _531_ _32__3_] _532_ d_lut_OAI21X1
ANAND2X1_57 [_532_ _536_] _0__43_ d_lut_NAND2X1
AOAI21X1_58 [_533_ _530_ _535_] _31_ d_lut_OAI21X1
AINVX1_29 [w_cout_11_] _540_ d_lut_INVX1
AOR2X2_29 [i_add_term2_44_ i_add_term1_44_] _541_ d_lut_OR2X2
ANAND2X1_58 [i_add_term2_44_ i_add_term1_44_] _542_ d_lut_NAND2X1
ANAND3X1_30 [_540_ _542_ _541_] _543_ d_lut_NAND3X1
ANOR2X1_30 [i_add_term2_44_ i_add_term1_44_] _537_ d_lut_NOR2X1
AAND2X2_30 [i_add_term2_44_ i_add_term1_44_] _538_ d_lut_AND2X2
AOAI21X1_59 [_537_ _538_ w_cout_11_] _539_ d_lut_OAI21X1
ANAND2X1_59 [_539_ _543_] _0__44_ d_lut_NAND2X1
AOAI21X1_60 [_540_ _537_ _542_] _35__1_ d_lut_OAI21X1
AINVX1_30 [_35__1_] _547_ d_lut_INVX1
AOR2X2_30 [i_add_term2_45_ i_add_term1_45_] _548_ d_lut_OR2X2
ANAND2X1_60 [i_add_term2_45_ i_add_term1_45_] _549_ d_lut_NAND2X1
ANAND3X1_31 [_547_ _549_ _548_] _550_ d_lut_NAND3X1
ANOR2X1_31 [i_add_term2_45_ i_add_term1_45_] _544_ d_lut_NOR2X1
AAND2X2_31 [i_add_term2_45_ i_add_term1_45_] _545_ d_lut_AND2X2
AOAI21X1_61 [_544_ _545_ _35__1_] _546_ d_lut_OAI21X1
ANAND2X1_61 [_546_ _550_] _0__45_ d_lut_NAND2X1
AOAI21X1_62 [_547_ _544_ _549_] _35__2_ d_lut_OAI21X1
AINVX1_31 [_35__2_] _554_ d_lut_INVX1
AOR2X2_31 [i_add_term2_46_ i_add_term1_46_] _555_ d_lut_OR2X2
ANAND2X1_62 [i_add_term2_46_ i_add_term1_46_] _556_ d_lut_NAND2X1
ANAND3X1_32 [_554_ _556_ _555_] _557_ d_lut_NAND3X1
ANOR2X1_32 [i_add_term2_46_ i_add_term1_46_] _551_ d_lut_NOR2X1
AAND2X2_32 [i_add_term2_46_ i_add_term1_46_] _552_ d_lut_AND2X2
AOAI21X1_63 [_551_ _552_ _35__2_] _553_ d_lut_OAI21X1
ANAND2X1_63 [_553_ _557_] _0__46_ d_lut_NAND2X1
AOAI21X1_64 [_554_ _551_ _556_] _35__3_ d_lut_OAI21X1
AINVX1_32 [_35__3_] _561_ d_lut_INVX1
AOR2X2_32 [i_add_term2_47_ i_add_term1_47_] _562_ d_lut_OR2X2
ANAND2X1_64 [i_add_term2_47_ i_add_term1_47_] _563_ d_lut_NAND2X1
ANAND3X1_33 [_561_ _563_ _562_] _564_ d_lut_NAND3X1
ANOR2X1_33 [i_add_term2_47_ i_add_term1_47_] _558_ d_lut_NOR2X1
AAND2X2_33 [i_add_term2_47_ i_add_term1_47_] _559_ d_lut_AND2X2
AOAI21X1_65 [_558_ _559_ _35__3_] _560_ d_lut_OAI21X1
ANAND2X1_65 [_560_ _564_] _0__47_ d_lut_NAND2X1
AOAI21X1_66 [_561_ _558_ _563_] _34_ d_lut_OAI21X1
AINVX1_33 [cskip2_inst.cin] _568_ d_lut_INVX1
AOR2X2_33 [i_add_term2_48_ i_add_term1_48_] _569_ d_lut_OR2X2
ANAND2X1_66 [i_add_term2_48_ i_add_term1_48_] _570_ d_lut_NAND2X1
ANAND3X1_34 [_568_ _570_ _569_] _571_ d_lut_NAND3X1
ANOR2X1_34 [i_add_term2_48_ i_add_term1_48_] _565_ d_lut_NOR2X1
AAND2X2_34 [i_add_term2_48_ i_add_term1_48_] _566_ d_lut_AND2X2
AOAI21X1_67 [_565_ _566_ cskip2_inst.cin] _567_ d_lut_OAI21X1
ANAND2X1_67 [_567_ _571_] _0__48_ d_lut_NAND2X1
AOAI21X1_68 [_568_ _565_ _570_] cskip2_inst.rca0.w_CARRY_1_ d_lut_OAI21X1
AINVX1_34 [cskip2_inst.rca0.w_CARRY_1_] _575_ d_lut_INVX1
AOR2X2_34 [i_add_term2_49_ i_add_term1_49_] _576_ d_lut_OR2X2
ANAND2X1_68 [i_add_term2_49_ i_add_term1_49_] _577_ d_lut_NAND2X1
ANAND3X1_35 [_575_ _577_ _576_] _578_ d_lut_NAND3X1
ANOR2X1_35 [i_add_term2_49_ i_add_term1_49_] _572_ d_lut_NOR2X1
AAND2X2_35 [i_add_term2_49_ i_add_term1_49_] _573_ d_lut_AND2X2
AOAI21X1_69 [_572_ _573_ cskip2_inst.rca0.w_CARRY_1_] _574_ d_lut_OAI21X1
ANAND2X1_69 [_574_ _578_] _0__49_ d_lut_NAND2X1
AOAI21X1_70 [_575_ _572_ _577_] cskip2_inst.rca0.w_CARRY_2_ d_lut_OAI21X1
AINVX1_35 [cskip2_inst.rca0.w_CARRY_2_] _580_ d_lut_INVX1
ANAND2X1_70 [gnd gnd] _581_ d_lut_NAND2X1
ANOR2X1_36 [gnd gnd] _579_ d_lut_NOR2X1
AOAI21X1_71 [_580_ _579_ _581_] cskip2_inst.rca0.w_CARRY_3_ d_lut_OAI21X1
AINVX1_36 [cskip2_inst.rca0.w_CARRY_3_] _583_ d_lut_INVX1
ANAND2X1_71 [gnd gnd] _584_ d_lut_NAND2X1
ANOR2X1_37 [gnd gnd] _582_ d_lut_NOR2X1
AOAI21X1_72 [_583_ _582_ _584_] cskip2_inst.cout0 d_lut_OAI21X1
AINVX1_37 [i_add_term1_49_] _589_ d_lut_INVX1
ANAND2X1_72 [i_add_term2_49_ _589_] _590_ d_lut_NAND2X1
AINVX1_38 [i_add_term2_49_] _591_ d_lut_INVX1
ANAND2X1_73 [i_add_term1_49_ _591_] _592_ d_lut_NAND2X1
AINVX1_39 [i_add_term1_48_] _585_ d_lut_INVX1
ANAND2X1_74 [i_add_term2_48_ _585_] _586_ d_lut_NAND2X1
AINVX1_40 [i_add_term2_48_] _587_ d_lut_INVX1
ANAND2X1_75 [i_add_term1_48_ _587_] _588_ d_lut_NAND2X1
AAOI22X1_1 [_590_ _592_ _586_ _588_] cskip2_inst.skip0.P d_lut_AOI22X1
AINVX1_41 [cskip2_inst.cout0] _593_ d_lut_INVX1
ANAND2X1_76 [gnd cskip2_inst.skip0.P] _594_ d_lut_NAND2X1
AOAI21X1_73 [cskip2_inst.skip0.P _593_ _594_] w_cout_13_ d_lut_OAI21X1
ABUFX2_1 [w_cout_13_] cout d_lut_BUFX2
ABUFX2_2 [_0__0_] sum_0_ d_lut_BUFX2
ABUFX2_3 [_0__1_] sum_1_ d_lut_BUFX2
ABUFX2_4 [_0__2_] sum_2_ d_lut_BUFX2
ABUFX2_5 [_0__3_] sum_3_ d_lut_BUFX2
ABUFX2_6 [_0__4_] sum_4_ d_lut_BUFX2
ABUFX2_7 [_0__5_] sum_5_ d_lut_BUFX2
ABUFX2_8 [_0__6_] sum_6_ d_lut_BUFX2
ABUFX2_9 [_0__7_] sum_7_ d_lut_BUFX2
ABUFX2_10 [_0__8_] sum_8_ d_lut_BUFX2
ABUFX2_11 [_0__9_] sum_9_ d_lut_BUFX2
ABUFX2_12 [_0__10_] sum_10_ d_lut_BUFX2
ABUFX2_13 [_0__11_] sum_11_ d_lut_BUFX2
ABUFX2_14 [_0__12_] sum_12_ d_lut_BUFX2
ABUFX2_15 [_0__13_] sum_13_ d_lut_BUFX2
ABUFX2_16 [_0__14_] sum_14_ d_lut_BUFX2
ABUFX2_17 [_0__15_] sum_15_ d_lut_BUFX2
ABUFX2_18 [_0__16_] sum_16_ d_lut_BUFX2
ABUFX2_19 [_0__17_] sum_17_ d_lut_BUFX2
ABUFX2_20 [_0__18_] sum_18_ d_lut_BUFX2
ABUFX2_21 [_0__19_] sum_19_ d_lut_BUFX2
ABUFX2_22 [_0__20_] sum_20_ d_lut_BUFX2
ABUFX2_23 [_0__21_] sum_21_ d_lut_BUFX2
ABUFX2_24 [_0__22_] sum_22_ d_lut_BUFX2
ABUFX2_25 [_0__23_] sum_23_ d_lut_BUFX2
ABUFX2_26 [_0__24_] sum_24_ d_lut_BUFX2
ABUFX2_27 [_0__25_] sum_25_ d_lut_BUFX2
ABUFX2_28 [_0__26_] sum_26_ d_lut_BUFX2
ABUFX2_29 [_0__27_] sum_27_ d_lut_BUFX2
ABUFX2_30 [_0__28_] sum_28_ d_lut_BUFX2
ABUFX2_31 [_0__29_] sum_29_ d_lut_BUFX2
ABUFX2_32 [_0__30_] sum_30_ d_lut_BUFX2
ABUFX2_33 [_0__31_] sum_31_ d_lut_BUFX2
ABUFX2_34 [_0__32_] sum_32_ d_lut_BUFX2
ABUFX2_35 [_0__33_] sum_33_ d_lut_BUFX2
ABUFX2_36 [_0__34_] sum_34_ d_lut_BUFX2
ABUFX2_37 [_0__35_] sum_35_ d_lut_BUFX2
ABUFX2_38 [_0__36_] sum_36_ d_lut_BUFX2
ABUFX2_39 [_0__37_] sum_37_ d_lut_BUFX2
ABUFX2_40 [_0__38_] sum_38_ d_lut_BUFX2
ABUFX2_41 [_0__39_] sum_39_ d_lut_BUFX2
ABUFX2_42 [_0__40_] sum_40_ d_lut_BUFX2
ABUFX2_43 [_0__41_] sum_41_ d_lut_BUFX2
ABUFX2_44 [_0__42_] sum_42_ d_lut_BUFX2
ABUFX2_45 [_0__43_] sum_43_ d_lut_BUFX2
ABUFX2_46 [_0__44_] sum_44_ d_lut_BUFX2
ABUFX2_47 [_0__45_] sum_45_ d_lut_BUFX2
ABUFX2_48 [_0__46_] sum_46_ d_lut_BUFX2
ABUFX2_49 [_0__47_] sum_47_ d_lut_BUFX2
ABUFX2_50 [_0__48_] sum_48_ d_lut_BUFX2
ABUFX2_51 [_0__49_] sum_49_ d_lut_BUFX2
AINVX1_42 [i_add_term1_0_] _37_ d_lut_INVX1
ANOR2X1_38 [i_add_term2_0_ _37_] _38_ d_lut_NOR2X1
AINVX1_43 [i_add_term2_0_] _39_ d_lut_INVX1
ANOR2X1_39 [i_add_term1_0_ _39_] _40_ d_lut_NOR2X1
AINVX1_44 [i_add_term1_1_] _41_ d_lut_INVX1
ANOR2X1_40 [i_add_term2_1_ _41_] _42_ d_lut_NOR2X1
AINVX1_45 [i_add_term2_1_] _43_ d_lut_INVX1
ANOR2X1_41 [i_add_term1_1_ _43_] _44_ d_lut_NOR2X1
AOAI22X1_1 [_38_ _40_ _42_ _44_] _45_ d_lut_OAI22X1
ANOR2X1_42 [i_add_term2_3_ i_add_term1_3_] _46_ d_lut_NOR2X1
AAND2X2_36 [i_add_term2_3_ i_add_term1_3_] _47_ d_lut_AND2X2
ANOR2X1_43 [_46_ _47_] _48_ d_lut_NOR2X1
AXOR2X1_1 [i_add_term2_2_ i_add_term1_2_] _49_ d_lut_XOR2X1
ANAND2X1_77 [_48_ _49_] _50_ d_lut_NAND2X1
ANOR2X1_44 [_45_ _50_] _3_ d_lut_NOR2X1
AINVX1_46 [_1_] _51_ d_lut_INVX1
ANAND2X1_78 [gnd _3_] _52_ d_lut_NAND2X1
AOAI21X1_74 [_3_ _51_ _52_] w_cout_1_ d_lut_OAI21X1
AINVX1_47 [i_add_term1_4_] _53_ d_lut_INVX1
ANOR2X1_45 [i_add_term2_4_ _53_] _54_ d_lut_NOR2X1
AINVX1_48 [i_add_term2_4_] _55_ d_lut_INVX1
ANOR2X1_46 [i_add_term1_4_ _55_] _56_ d_lut_NOR2X1
AINVX1_49 [i_add_term1_5_] _57_ d_lut_INVX1
ANOR2X1_47 [i_add_term2_5_ _57_] _58_ d_lut_NOR2X1
AINVX1_50 [i_add_term2_5_] _59_ d_lut_INVX1
ANOR2X1_48 [i_add_term1_5_ _59_] _60_ d_lut_NOR2X1
AOAI22X1_2 [_54_ _56_ _58_ _60_] _61_ d_lut_OAI22X1
ANOR2X1_49 [i_add_term2_7_ i_add_term1_7_] _62_ d_lut_NOR2X1
AAND2X2_37 [i_add_term2_7_ i_add_term1_7_] _63_ d_lut_AND2X2
ANOR2X1_50 [_62_ _63_] _64_ d_lut_NOR2X1
AXOR2X1_2 [i_add_term2_6_ i_add_term1_6_] _65_ d_lut_XOR2X1
ANAND2X1_79 [_64_ _65_] _66_ d_lut_NAND2X1
ANOR2X1_51 [_61_ _66_] _6_ d_lut_NOR2X1
AINVX1_51 [_4_] _67_ d_lut_INVX1
ANAND2X1_80 [gnd _6_] _68_ d_lut_NAND2X1
AOAI21X1_75 [_6_ _67_ _68_] w_cout_2_ d_lut_OAI21X1
AINVX1_52 [i_add_term1_8_] _69_ d_lut_INVX1
ANOR2X1_52 [i_add_term2_8_ _69_] _70_ d_lut_NOR2X1
AINVX1_53 [i_add_term2_8_] _71_ d_lut_INVX1
ANOR2X1_53 [i_add_term1_8_ _71_] _72_ d_lut_NOR2X1
AINVX1_54 [i_add_term1_9_] _73_ d_lut_INVX1
ANOR2X1_54 [i_add_term2_9_ _73_] _74_ d_lut_NOR2X1
AINVX1_55 [i_add_term2_9_] _75_ d_lut_INVX1
ANOR2X1_55 [i_add_term1_9_ _75_] _76_ d_lut_NOR2X1
AOAI22X1_3 [_70_ _72_ _74_ _76_] _77_ d_lut_OAI22X1
ANOR2X1_56 [i_add_term2_11_ i_add_term1_11_] _78_ d_lut_NOR2X1
AAND2X2_38 [i_add_term2_11_ i_add_term1_11_] _79_ d_lut_AND2X2
ANOR2X1_57 [_78_ _79_] _80_ d_lut_NOR2X1
AXOR2X1_3 [i_add_term2_10_ i_add_term1_10_] _81_ d_lut_XOR2X1
ANAND2X1_81 [_80_ _81_] _82_ d_lut_NAND2X1
ANOR2X1_58 [_77_ _82_] _9_ d_lut_NOR2X1
AINVX1_56 [_7_] _83_ d_lut_INVX1
ANAND2X1_82 [gnd _9_] _84_ d_lut_NAND2X1
AOAI21X1_76 [_9_ _83_ _84_] w_cout_3_ d_lut_OAI21X1
AINVX1_57 [i_add_term1_12_] _85_ d_lut_INVX1
ANOR2X1_59 [i_add_term2_12_ _85_] _86_ d_lut_NOR2X1
AINVX1_58 [i_add_term2_12_] _87_ d_lut_INVX1
ANOR2X1_60 [i_add_term1_12_ _87_] _88_ d_lut_NOR2X1
AINVX1_59 [i_add_term1_13_] _89_ d_lut_INVX1
ANOR2X1_61 [i_add_term2_13_ _89_] _90_ d_lut_NOR2X1
AINVX1_60 [i_add_term2_13_] _91_ d_lut_INVX1
ANOR2X1_62 [i_add_term1_13_ _91_] _92_ d_lut_NOR2X1
AOAI22X1_4 [_86_ _88_ _90_ _92_] _93_ d_lut_OAI22X1
ANOR2X1_63 [i_add_term2_15_ i_add_term1_15_] _94_ d_lut_NOR2X1
AAND2X2_39 [i_add_term2_15_ i_add_term1_15_] _95_ d_lut_AND2X2
ANOR2X1_64 [_94_ _95_] _96_ d_lut_NOR2X1
AXOR2X1_4 [i_add_term2_14_ i_add_term1_14_] _97_ d_lut_XOR2X1
ANAND2X1_83 [_96_ _97_] _98_ d_lut_NAND2X1
ANOR2X1_65 [_93_ _98_] _12_ d_lut_NOR2X1
AINVX1_61 [_10_] _99_ d_lut_INVX1
ANAND2X1_84 [gnd _12_] _100_ d_lut_NAND2X1
AOAI21X1_77 [_12_ _99_ _100_] w_cout_4_ d_lut_OAI21X1
AINVX1_62 [i_add_term1_16_] _101_ d_lut_INVX1
ANOR2X1_66 [i_add_term2_16_ _101_] _102_ d_lut_NOR2X1
AINVX1_63 [i_add_term2_16_] _103_ d_lut_INVX1
ANOR2X1_67 [i_add_term1_16_ _103_] _104_ d_lut_NOR2X1
AINVX1_64 [i_add_term1_17_] _105_ d_lut_INVX1
ANOR2X1_68 [i_add_term2_17_ _105_] _106_ d_lut_NOR2X1
AINVX1_65 [i_add_term2_17_] _107_ d_lut_INVX1
ANOR2X1_69 [i_add_term1_17_ _107_] _108_ d_lut_NOR2X1
AOAI22X1_5 [_102_ _104_ _106_ _108_] _109_ d_lut_OAI22X1
ANOR2X1_70 [i_add_term2_19_ i_add_term1_19_] _110_ d_lut_NOR2X1
AAND2X2_40 [i_add_term2_19_ i_add_term1_19_] _111_ d_lut_AND2X2
ANOR2X1_71 [_110_ _111_] _112_ d_lut_NOR2X1
AXOR2X1_5 [i_add_term2_18_ i_add_term1_18_] _113_ d_lut_XOR2X1
ANAND2X1_85 [_112_ _113_] _114_ d_lut_NAND2X1
ANOR2X1_72 [_109_ _114_] _15_ d_lut_NOR2X1
AINVX1_66 [_13_] _115_ d_lut_INVX1
ANAND2X1_86 [gnd _15_] _116_ d_lut_NAND2X1
AOAI21X1_78 [_15_ _115_ _116_] w_cout_5_ d_lut_OAI21X1
AINVX1_67 [i_add_term1_20_] _117_ d_lut_INVX1
ANOR2X1_73 [i_add_term2_20_ _117_] _118_ d_lut_NOR2X1
AINVX1_68 [i_add_term2_20_] _119_ d_lut_INVX1
ANOR2X1_74 [i_add_term1_20_ _119_] _120_ d_lut_NOR2X1
AINVX1_69 [i_add_term1_21_] _121_ d_lut_INVX1
ANOR2X1_75 [i_add_term2_21_ _121_] _122_ d_lut_NOR2X1
AINVX1_70 [i_add_term2_21_] _123_ d_lut_INVX1
ANOR2X1_76 [i_add_term1_21_ _123_] _124_ d_lut_NOR2X1
AOAI22X1_6 [_118_ _120_ _122_ _124_] _125_ d_lut_OAI22X1
ANOR2X1_77 [i_add_term2_23_ i_add_term1_23_] _126_ d_lut_NOR2X1
AAND2X2_41 [i_add_term2_23_ i_add_term1_23_] _127_ d_lut_AND2X2
ANOR2X1_78 [_126_ _127_] _128_ d_lut_NOR2X1
AXOR2X1_6 [i_add_term2_22_ i_add_term1_22_] _129_ d_lut_XOR2X1
ANAND2X1_87 [_128_ _129_] _130_ d_lut_NAND2X1
ANOR2X1_79 [_125_ _130_] _18_ d_lut_NOR2X1
AINVX1_71 [_16_] _131_ d_lut_INVX1
ANAND2X1_88 [gnd _18_] _132_ d_lut_NAND2X1
AOAI21X1_79 [_18_ _131_ _132_] w_cout_6_ d_lut_OAI21X1
AINVX1_72 [i_add_term1_24_] _133_ d_lut_INVX1
ANOR2X1_80 [i_add_term2_24_ _133_] _134_ d_lut_NOR2X1
AINVX1_73 [i_add_term2_24_] _135_ d_lut_INVX1
ANOR2X1_81 [i_add_term1_24_ _135_] _136_ d_lut_NOR2X1
AINVX1_74 [i_add_term1_25_] _137_ d_lut_INVX1
ANOR2X1_82 [i_add_term2_25_ _137_] _138_ d_lut_NOR2X1
AINVX1_75 [i_add_term2_25_] _139_ d_lut_INVX1
ANOR2X1_83 [i_add_term1_25_ _139_] _140_ d_lut_NOR2X1
AOAI22X1_7 [_134_ _136_ _138_ _140_] _141_ d_lut_OAI22X1
ANOR2X1_84 [i_add_term2_27_ i_add_term1_27_] _142_ d_lut_NOR2X1
AAND2X2_42 [i_add_term2_27_ i_add_term1_27_] _143_ d_lut_AND2X2
ANOR2X1_85 [_142_ _143_] _144_ d_lut_NOR2X1
AXOR2X1_7 [i_add_term2_26_ i_add_term1_26_] _145_ d_lut_XOR2X1
ANAND2X1_89 [_144_ _145_] _146_ d_lut_NAND2X1
ANOR2X1_86 [_141_ _146_] _21_ d_lut_NOR2X1
AINVX1_76 [_19_] _147_ d_lut_INVX1
ANAND2X1_90 [gnd _21_] _148_ d_lut_NAND2X1
AOAI21X1_80 [_21_ _147_ _148_] w_cout_7_ d_lut_OAI21X1
AINVX1_77 [i_add_term1_28_] _149_ d_lut_INVX1
ANOR2X1_87 [i_add_term2_28_ _149_] _150_ d_lut_NOR2X1
AINVX1_78 [i_add_term2_28_] _151_ d_lut_INVX1
ANOR2X1_88 [i_add_term1_28_ _151_] _152_ d_lut_NOR2X1
AINVX1_79 [i_add_term1_29_] _153_ d_lut_INVX1
ANOR2X1_89 [i_add_term2_29_ _153_] _154_ d_lut_NOR2X1
AINVX1_80 [i_add_term2_29_] _155_ d_lut_INVX1
ANOR2X1_90 [i_add_term1_29_ _155_] _156_ d_lut_NOR2X1
AOAI22X1_8 [_150_ _152_ _154_ _156_] _157_ d_lut_OAI22X1
ANOR2X1_91 [i_add_term2_31_ i_add_term1_31_] _158_ d_lut_NOR2X1
AAND2X2_43 [i_add_term2_31_ i_add_term1_31_] _159_ d_lut_AND2X2
ANOR2X1_92 [_158_ _159_] _160_ d_lut_NOR2X1
AXOR2X1_8 [i_add_term2_30_ i_add_term1_30_] _161_ d_lut_XOR2X1
ANAND2X1_91 [_160_ _161_] _162_ d_lut_NAND2X1
ANOR2X1_93 [_157_ _162_] _24_ d_lut_NOR2X1