*SPEF "IEEE 1481.1999"
*DESIGN "csa_16bit"
*DATE "09:28:19 Saturday April 11, 2020"
*VENDOR "unknown"
*PROGRAM "qrouter"
*VERSION "unknown"
*DESIGN_FLOW "qflow"
*DIVIDER /
*DELIMITER :
*BUS_DELIMITER <>
*T_UNIT 1 PS
*C_UNIT 1 FF
*R_UNIT 1 OHM
*L_UNIT 1 HENRY

*NAME_MAP
*1 rca_inst_cout
*2 OAI21X1_67
*3 NAND2X1_5
*4 OAI21X1_5
*5 OAI21X1_4
*6 NAND2X1_4
*7 OAI21X1_2
*8 OAI21X1_1
*9 NAND2X1_2
*10 NAND2X1_1
*11 NAND2X1_3
*12 OAI21X1_3
*13 BUFX2_22
*14 w_cout[1]
*15 OAI21X1_1
*16 NAND2X1_25
*17 OAI21X1_25
*18 NAND2X1_22
*19 OAI21X1_22
*20 NAND2X1_24
*21 OAI21X1_24
*22 NAND2X1_26
*23 OAI21X1_26
*24 NAND2X1_23
*25 OAI21X1_23
*26 w_cout[2]
*27 OAI21X1_22
*28 OAI21X1_47
*29 OAI21X1_43
*30 NAND2X1_47
*31 NAND2X1_43
*32 NAND2X1_46
*33 NAND2X1_44
*34 OAI21X1_44
*35 NAND2X1_45
*36 OAI21X1_45
*37 OAI21X1_46
*38 i_add_term2[4]
*39 AND2X2_1
*40 NAND2X1_6
*41 NOR2X1_1
*42 OR2X2_1
*43 AND2X2_5
*44 NOR2X1_5
*45 NAND2X1_14
*46 OR2X2_5
*47 i_add_term1[4]
*48 NAND2X1_6
*49 NOR2X1_1
*50 OR2X2_1
*51 NOR2X1_5
*52 AND2X2_5
*53 NAND2X1_14
*54 OR2X2_5
*55 AND2X2_1
*56 i_add_term2[7]
*57 AND2X2_2
*58 NOR2X1_2
*59 OR2X2_6
*60 NAND2X1_8
*61 NAND2X1_16
*62 NOR2X1_6
*63 AND2X2_6
*64 OR2X2_2
*65 i_add_term1[7]
*66 NOR2X1_2
*67 NAND2X1_8
*68 OR2X2_6
*69 AND2X2_6
*70 NAND2X1_16
*71 NOR2X1_6
*72 OR2X2_2
*73 AND2X2_2
*74 i_add_term2[5]
*75 NOR2X1_3
*76 NAND2X1_18
*77 NAND2X1_10
*78 OR2X2_3
*79 NOR2X1_7
*80 AND2X2_7
*81 OR2X2_7
*82 AND2X2_3
*83 i_add_term1[5]
*84 ERROR
*85 i_add_term2[6]
*86 OR2X2_4
*87 NAND2X1_12
*88 NOR2X1_4
*89 NAND2X1_20
*90 OR2X2_8
*91 NOR2X1_8
*92 AND2X2_8
*93 AND2X2_4
*94 i_add_term1[6]
*95 OR2X2_4
*96 NAND2X1_12
*97 NOR2X1_4
*98 AND2X2_4
*99 NAND2X1_20
*100 OR2X2_8
*101 AND2X2_8
*102 NOR2X1_8
*103 i_add_term2[8]
*104 OR2X2_9
*105 AND2X2_9
*106 NAND2X1_27
*107 NOR2X1_13
*108 NAND2X1_35
*109 OR2X2_13
*110 NOR2X1_9
*111 AND2X2_13
*112 i_add_term1[8]
*113 OR2X2_9
*114 NAND2X1_27
*115 NOR2X1_9
*116 AND2X2_13
*117 NOR2X1_13
*118 NAND2X1_35
*119 OR2X2_13
*120 AND2X2_9
*121 i_add_term2[11]
*122 NAND2X1_37
*123 AND2X2_14
*124 NOR2X1_14
*125 OR2X2_10
*126 NAND2X1_29
*127 OR2X2_14
*128 NOR2X1_10
*129 AND2X2_10
*130 i_add_term1[11]
*131 AND2X2_14
*132 NOR2X1_14
*133 NAND2X1_37
*134 OR2X2_10
*135 NAND2X1_29
*136 OR2X2_14
*137 NOR2X1_10
*138 AND2X2_10
*139 i_add_term2[9]
*140 OR2X2_11
*141 NOR2X1_11
*142 OR2X2_15
*143 AND2X2_11
*144 NOR2X1_15
*145 NAND2X1_39
*146 AND2X2_15
*147 NAND2X1_31
*148 i_add_term1[9]
*149 OR2X2_11
*150 NOR2X1_11
*151 AND2X2_11
*152 OR2X2_15
*153 NOR2X1_15
*154 AND2X2_15
*155 NAND2X1_39
*156 NAND2X1_31
*157 i_add_term2[10]
*158 OR2X2_12
*159 NOR2X1_12
*160 NAND2X1_33
*161 AND2X2_12
*162 OR2X2_16
*163 NAND2X1_41
*164 NOR2X1_16
*165 AND2X2_16
*166 i_add_term1[10]
*167 OR2X2_12
*168 NOR2X1_12
*169 AND2X2_12
*170 OR2X2_16
*171 NOR2X1_16
*172 AND2X2_16
*173 NAND2X1_41
*174 NAND2X1_33
*175 i_add_term2[12]
*176 NOR2X1_17
*177 AND2X2_17
*178 NAND2X1_56
*179 OR2X2_21
*180 NOR2X1_21
*181 AND2X2_21
*182 OR2X2_17
*183 NAND2X1_48
*184 i_add_term1[12]
*185 OR2X2_17
*186 NAND2X1_48
*187 NOR2X1_17
*188 AND2X2_17
*189 NAND2X1_56
*190 NOR2X1_21
*191 AND2X2_21
*192 OR2X2_21
*193 i_add_term2[15]
*194 AND2X2_22
*195 NOR2X1_22
*196 NOR2X1_18
*197 NAND2X1_58
*198 NAND2X1_50
*199 OR2X2_22
*200 OR2X2_18
*201 AND2X2_18
*202 i_add_term1[15]
*203 NOR2X1_18
*204 AND2X2_18
*205 AND2X2_22
*206 NOR2X1_22
*207 OR2X2_22
*208 NAND2X1_50
*209 NAND2X1_58
*210 OR2X2_18
*211 i_add_term2[13]
*212 NOR2X1_23
*213 AND2X2_23
*214 OR2X2_19
*215 AND2X2_19
*216 NAND2X1_52
*217 NOR2X1_19
*218 OR2X2_23
*219 NAND2X1_60
*220 i_add_term1[13]
*221 NAND2X1_60
*222 AND2X2_23
*223 NOR2X1_23
*224 OR2X2_23
*225 NOR2X1_19
*226 NAND2X1_52
*227 AND2X2_19
*228 OR2X2_19
*229 i_add_term2[14]
*230 AND2X2_20
*231 NAND2X1_62
*232 AND2X2_24
*233 NOR2X1_24
*234 OR2X2_24
*235 NAND2X1_54
*236 NOR2X1_20
*237 OR2X2_20
*238 i_add_term1[14]
*239 ERROR
*240 i_add_term2[0]
*241 AND2X2_25
*242 NAND2X1_64
*243 OR2X2_25
*244 NOR2X1_25
*245 i_add_term1[0]
*246 NOR2X1_25
*247 i_add_term2[3]
*248 OR2X2_26
*249 NAND2X1_66
*250 AND2X2_26
*251 NOR2X1_26
*252 i_add_term1[3]
*253 OR2X2_26
*254 NAND2X1_66
*255 NOR2X1_26
*256 AND2X2_26
*257 i_add_term2[1]
*258 AND2X2_27
*259 NOR2X1_27
*260 NAND2X1_68
*261 OR2X2_27
*262 i_add_term1[1]
*263 NOR2X1_27
*264 OR2X2_27
*265 NAND2X1_68
*266 AND2X2_27
*267 i_add_term2[2]
*268 NAND2X1_70
*269 OR2X2_28
*270 NOR2X1_28
*271 AND2X2_28
*272 i_add_term1[2]
*273 NAND2X1_70
*274 OR2X2_28
*275 NOR2X1_28
*276 AND2X2_28
*277 rca_inst_fa0_o_sum
*278 NAND2X1_65
*279 BUFX2_2
*280 BUFX2_18
*281 rca_inst_fa[1]_o_sum
*282 NAND2X1_69
*283 BUFX2_3
*284 BUFX2_19
*285 rca_inst_fa[2]_o_sum
*286 NAND2X1_71
*287 BUFX2_20
*288 BUFX2_4
*289 rca_inst_fa31_o_sum
*290 NAND2X1_67
*291 BUFX2_5
*292 BUFX2_21
*293 _32_
*294 INVX1_6
*295 OAI21X1_7
*296 NAND3X1_1
*297 _34_
*298 NAND2X1_6
*299 OAI21X1_7
*300 NAND3X1_1
*301 _29_
*302 NOR2X1_1
*303 OAI21X1_7
*304 OAI21X1_6
*305 _5_[1]
*306 OAI21X1_7
*307 OAI21X1_10
*308 INVX1_8
*309 _5_[3]
*310 OAI21X1_13
*311 OAI21X1_8
*312 INVX1_7
*313 _39_
*314 INVX1_7
*315 NAND3X1_2
*316 OAI21X1_9
*317 _41_
*318 NAND2X1_8
*319 NAND3X1_2
*320 OAI21X1_9
*321 _36_
*322 NOR2X1_2
*323 OAI21X1_8
*324 OAI21X1_9
*325 _46_
*326 INVX1_8
*327 OAI21X1_11
*328 NAND3X1_3
*329 _48_
*330 NAND2X1_10
*331 NAND3X1_3
*332 OAI21X1_11
*333 _43_
*334 NOR2X1_3
*335 OAI21X1_10
*336 OAI21X1_11
*337 _5_[2]
*338 OAI21X1_11
*339 OAI21X1_12
*340 INVX1_9
*341 _53_
*342 INVX1_9
*343 NAND3X1_4
*344 OAI21X1_13
*345 _55_
*346 NAND2X1_12
*347 NAND3X1_4
*348 OAI21X1_13
*349 _50_
*350 NOR2X1_4
*351 OAI21X1_13
*352 OAI21X1_12
*353 _60_
*354 INVX1_10
*355 NAND3X1_5
*356 OAI21X1_15
*357 _62_
*358 NAND2X1_14
*359 NAND3X1_5
*360 OAI21X1_15
*361 _57_
*362 NOR2X1_5
*363 OAI21X1_14
*364 OAI21X1_15
*365 _6_[1]
*366 OAI21X1_15
*367 INVX1_12
*368 OAI21X1_18
*369 _6_[3]
*370 OAI21X1_21
*371 OAI21X1_16
*372 INVX1_11
*373 _67_
*374 INVX1_11
*375 NAND3X1_6
*376 OAI21X1_17
*377 _69_
*378 NAND2X1_16
*379 OAI21X1_17
*380 NAND3X1_6
*381 _64_
*382 NOR2X1_6
*383 OAI21X1_17
*384 OAI21X1_16
*385 _74_
*386 INVX1_12
*387 NAND3X1_7
*388 OAI21X1_19
*389 _76_
*390 NAND2X1_18
*391 NAND3X1_7
*392 OAI21X1_19
*393 _71_
*394 NOR2X1_7
*395 OAI21X1_19
*396 OAI21X1_18
*397 _6_[2]
*398 OAI21X1_19
*399 OAI21X1_20
*400 INVX1_13
*401 _81_
*402 INVX1_13
*403 OAI21X1_21
*404 NAND3X1_8
*405 _83_
*406 NAND2X1_20
*407 NAND3X1_8
*408 OAI21X1_21
*409 _78_
*410 NOR2X1_8
*411 OAI21X1_20
*412 OAI21X1_21
*413 _98_
*414 INVX1_19
*415 OAI21X1_28
*416 NAND3X1_9
*417 _100_
*418 NAND2X1_27
*419 NAND3X1_9
*420 OAI21X1_28
*421 _95_
*422 NOR2X1_9
*423 OAI21X1_27
*424 OAI21X1_28
*425 _11_[1]
*426 OAI21X1_28
*427 INVX1_21
*428 OAI21X1_31
*429 _11_[3]
*430 OAI21X1_34
*431 OAI21X1_29
*432 INVX1_20
*433 _105_
*434 INVX1_20
*435 NAND3X1_10
*436 OAI21X1_30
*437 _107_
*438 NAND2X1_29
*439 OAI21X1_30
*440 NAND3X1_10
*441 _102_
*442 NOR2X1_10
*443 OAI21X1_30
*444 OAI21X1_29
*445 _112_
*446 INVX1_21
*447 OAI21X1_32
*448 NAND3X1_11
*449 _114_
*450 NAND2X1_31
*451 OAI21X1_32
*452 NAND3X1_11
*453 _109_
*454 NOR2X1_11
*455 OAI21X1_31
*456 OAI21X1_32
*457 _11_[2]
*458 OAI21X1_32
*459 INVX1_22
*460 OAI21X1_33
*461 _119_
*462 INVX1_22
*463 OAI21X1_34
*464 NAND3X1_12
*465 _121_
*466 NAND2X1_33
*467 OAI21X1_34
*468 NAND3X1_12
*469 _116_
*470 NOR2X1_12
*471 OAI21X1_34
*472 OAI21X1_33
*473 _126_
*474 INVX1_23
*475 NAND3X1_13
*476 OAI21X1_36
*477 _128_
*478 NAND2X1_35
*479 NAND3X1_13
*480 OAI21X1_36
*481 _123_
*482 NOR2X1_13
*483 OAI21X1_35
*484 OAI21X1_36
*485 _12_[1]
*486 OAI21X1_36
*487 INVX1_25
*488 OAI21X1_39
*489 _12_[3]
*490 OAI21X1_42
*491 OAI21X1_37
*492 INVX1_24
*493 _133_
*494 INVX1_24
*495 NAND3X1_14
*496 OAI21X1_38
*497 _135_
*498 NAND2X1_37
*499 NAND3X1_14
*500 OAI21X1_38
*501 _130_
*502 NOR2X1_14
*503 OAI21X1_37
*504 OAI21X1_38
*505 _140_
*506 INVX1_25
*507 OAI21X1_40
*508 NAND3X1_15
*509 _142_
*510 NAND2X1_39
*511 OAI21X1_40
*512 NAND3X1_15
*513 _137_
*514 NOR2X1_15
*515 OAI21X1_40
*516 OAI21X1_39
*517 _12_[2]
*518 OAI21X1_40
*519 OAI21X1_41
*520 INVX1_26
*521 _147_
*522 INVX1_26
*523 OAI21X1_42
*524 NAND3X1_16
*525 _149_
*526 NAND2X1_41
*527 NAND3X1_16
*528 OAI21X1_42
*529 _144_
*530 NOR2X1_16
*531 OAI21X1_41
*532 OAI21X1_42
*533 _164_
*534 INVX1_32
*535 OAI21X1_49
*536 NAND3X1_17
*537 _166_
*538 NAND2X1_48
*539 NAND3X1_17
*540 OAI21X1_49
*541 _161_
*542 NOR2X1_17
*543 OAI21X1_48
*544 OAI21X1_49
*545 _17_[1]
*546 OAI21X1_49
*547 INVX1_34
*548 OAI21X1_52
*549 _17_[3]
*550 OAI21X1_55
*551 OAI21X1_50
*552 INVX1_33
*553 _171_
*554 INVX1_33
*555 OAI21X1_51
*556 NAND3X1_18
*557 _173_
*558 NAND2X1_50
*559 NAND3X1_18
*560 OAI21X1_51
*561 _168_
*562 NOR2X1_18
*563 OAI21X1_51
*564 OAI21X1_50
*565 _178_
*566 INVX1_34
*567 NAND3X1_19
*568 OAI21X1_53
*569 _180_
*570 NAND2X1_52
*571 NAND3X1_19
*572 OAI21X1_53
*573 _175_
*574 NOR2X1_19
*575 OAI21X1_53
*576 OAI21X1_52
*577 _17_[2]
*578 OAI21X1_53
*579 INVX1_35
*580 OAI21X1_54
*581 _185_
*582 INVX1_35
*583 OAI21X1_55
*584 NAND3X1_20
*585 _187_
*586 NAND2X1_54
*587 OAI21X1_55
*588 NAND3X1_20
*589 _182_
*590 NOR2X1_20
*591 OAI21X1_55
*592 OAI21X1_54
*593 _192_
*594 INVX1_36
*595 OAI21X1_57
*596 NAND3X1_21
*597 _194_
*598 NAND2X1_56
*599 NAND3X1_21
*600 OAI21X1_57
*601 _189_
*602 NOR2X1_21
*603 OAI21X1_56
*604 OAI21X1_57
*605 _18_[1]
*606 OAI21X1_57
*607 INVX1_38
*608 OAI21X1_60
*609 _18_[3]
*610 OAI21X1_63
*611 OAI21X1_58
*612 INVX1_37
*613 _199_
*614 INVX1_37
*615 NAND3X1_22
*616 OAI21X1_59
*617 _201_
*618 NAND2X1_58
*619 NAND3X1_22
*620 OAI21X1_59
*621 _196_
*622 NOR2X1_22
*623 OAI21X1_58
*624 OAI21X1_59
*625 _206_
*626 INVX1_38
*627 NAND3X1_23
*628 OAI21X1_61
*629 _208_
*630 NAND2X1_60
*631 OAI21X1_61
*632 NAND3X1_23
*633 _203_
*634 NOR2X1_23
*635 OAI21X1_61
*636 OAI21X1_60
*637 _18_[2]
*638 OAI21X1_61
*639 INVX1_39
*640 OAI21X1_62
*641 _213_
*642 INVX1_39
*643 NAND3X1_24
*644 OAI21X1_63
*645 _215_
*646 NAND2X1_62
*647 OAI21X1_63
*648 NAND3X1_24
*649 _210_
*650 NOR2X1_24
*651 OAI21X1_63
*652 OAI21X1_62
*653 _220_
*654 INVX1_40
*655 NAND3X1_25
*656 OAI21X1_65
*657 _222_
*658 NAND2X1_64
*659 OAI21X1_65
*660 NAND3X1_25
*661 _217_
*662 NOR2X1_25
*663 OAI21X1_65
*664 OAI21X1_64
*665 rca_inst_fa0_o_carry
*666 OAI21X1_65
*667 OAI21X1_68
*668 INVX1_42
*669 rca_inst_fa31_i_carry
*670 OAI21X1_71
*671 OAI21X1_66
*672 INVX1_41
*673 _227_
*674 INVX1_41
*675 OAI21X1_67
*676 NAND3X1_26
*677 _229_
*678 NAND2X1_66
*679 NAND3X1_26
*680 OAI21X1_67
*681 _224_
*682 NOR2X1_26
*683 OAI21X1_67
*684 OAI21X1_66
*685 _234_
*686 INVX1_42
*687 NAND3X1_27
*688 OAI21X1_69
*689 _236_
*690 NAND2X1_68
*691 NAND3X1_27
*692 OAI21X1_69
*693 _231_
*694 NOR2X1_27
*695 OAI21X1_69
*696 OAI21X1_68
*697 rca_inst_fa[1]_o_carry
*698 OAI21X1_69
*699 INVX1_43
*700 OAI21X1_70
*701 _241_
*702 INVX1_43
*703 OAI21X1_71
*704 NAND3X1_28
*705 _243_
*706 NAND2X1_70
*707 OAI21X1_71
*708 NAND3X1_28
*709 _238_
*710 NOR2X1_28
*711 OAI21X1_71
*712 OAI21X1_70
*713 w_cout[3]
*714 OAI21X1_43
*715 BUFX2_1
*716 cout
*717 BUFX2_1
*718 sum[0]
*719 BUFX2_2
*720 sum[1]
*721 BUFX2_3
*722 sum[2]
*723 BUFX2_4
*724 sum[3]
*725 BUFX2_5
*726 _0_[4]
*727 OAI21X1_2
*728 BUFX2_6
*729 sum[4]
*730 BUFX2_6
*731 _0_[5]
*732 OAI21X1_3
*733 BUFX2_7
*734 sum[5]
*735 BUFX2_7
*736 _0_[6]
*737 OAI21X1_4
*738 BUFX2_8
*739 sum[6]
*740 BUFX2_8
*741 _0_[7]
*742 OAI21X1_5
*743 BUFX2_9
*744 sum[7]
*745 BUFX2_9
*746 _0_[8]
*747 OAI21X1_23
*748 BUFX2_10
*749 sum[8]
*750 BUFX2_10
*751 _0_[9]
*752 OAI21X1_24
*753 BUFX2_11
*754 sum[9]
*755 BUFX2_11
*756 _0_[10]
*757 OAI21X1_25
*758 BUFX2_12
*759 sum[10]
*760 BUFX2_12
*761 _0_[11]
*762 OAI21X1_26
*763 BUFX2_13
*764 sum[11]
*765 BUFX2_13
*766 _0_[12]
*767 OAI21X1_44
*768 BUFX2_14
*769 sum[12]
*770 BUFX2_14
*771 _0_[13]
*772 OAI21X1_45
*773 BUFX2_15
*774 sum[13]
*775 BUFX2_15
*776 _0_[14]
*777 OAI21X1_46
*778 BUFX2_16
*779 sum[14]
*780 BUFX2_16
*781 _0_[15]
*782 OAI21X1_47
*783 BUFX2_17
*784 sum[15]
*785 BUFX2_17
*786 _1_
*787 OAI21X1_9
*788 INVX1_1
*789 _19_
*790 INVX1_1
*791 OAI21X1_1
*792 _2_
*793 OAI21X1_17
*794 NAND2X1_1
*795 _20_
*796 NAND2X1_1
*797 OAI21X1_1
*798 _3_[0]
*799 NAND2X1_7
*800 INVX1_2
*801 _21_
*802 INVX1_2
*803 OAI21X1_2
*804 _4_[0]
*805 NAND2X1_15
*806 NAND2X1_2
*807 _22_
*808 NAND2X1_2
*809 OAI21X1_2
*810 _3_[1]
*811 NAND2X1_11
*812 INVX1_3
*813 _23_
*814 INVX1_3
*815 OAI21X1_3
*816 _4_[1]
*817 NAND2X1_19
*818 NAND2X1_3
*819 _24_
*820 NAND2X1_3
*821 OAI21X1_3
*822 _3_[2]
*823 NAND2X1_13
*824 INVX1_4
*825 _25_
*826 INVX1_4
*827 OAI21X1_4
*828 _4_[2]
*829 NAND2X1_21
*830 NAND2X1_4
*831 _26_
*832 NAND2X1_4
*833 OAI21X1_4
*834 _3_[3]
*835 NAND2X1_9
*836 INVX1_5
*837 _27_
*838 INVX1_5
*839 OAI21X1_5
*840 _4_[3]
*841 NAND2X1_17
*842 NAND2X1_5
*843 _28_
*844 NAND2X1_5
*845 OAI21X1_5
*846 _33_
*847 OR2X2_1
*848 NAND3X1_1
*849 _35_
*850 NAND3X1_1
*851 NAND2X1_7
*852 _30_
*853 AND2X2_1
*854 OAI21X1_6
*855 _31_
*856 OAI21X1_6
*857 NAND2X1_7
*858 _40_
*859 OR2X2_2
*860 NAND3X1_2
*861 _42_
*862 NAND3X1_2
*863 NAND2X1_9
*864 _37_
*865 AND2X2_2
*866 OAI21X1_8
*867 _38_
*868 OAI21X1_8
*869 NAND2X1_9
*870 _47_
*871 OR2X2_3
*872 NAND3X1_3
*873 _49_
*874 NAND3X1_3
*875 NAND2X1_11
*876 _44_
*877 AND2X2_3
*878 OAI21X1_10
*879 _45_
*880 OAI21X1_10
*881 NAND2X1_11
*882 _54_
*883 OR2X2_4
*884 NAND3X1_4
*885 _56_
*886 NAND3X1_4
*887 NAND2X1_13
*888 _51_
*889 AND2X2_4
*890 OAI21X1_12
*891 _52_
*892 OAI21X1_12
*893 NAND2X1_13
*894 _61_
*895 OR2X2_5
*896 NAND3X1_5
*897 _63_
*898 NAND3X1_5
*899 NAND2X1_15
*900 _58_
*901 AND2X2_5
*902 OAI21X1_14
*903 _59_
*904 OAI21X1_14
*905 NAND2X1_15
*906 _68_
*907 OR2X2_6
*908 NAND3X1_6
*909 _70_
*910 NAND3X1_6
*911 NAND2X1_17
*912 _65_
*913 AND2X2_6
*914 OAI21X1_16
*915 _66_
*916 OAI21X1_16
*917 NAND2X1_17
*918 _75_
*919 OR2X2_7
*920 NAND3X1_7
*921 _77_
*922 NAND3X1_7
*923 NAND2X1_19
*924 _72_
*925 AND2X2_7
*926 OAI21X1_18
*927 _73_
*928 OAI21X1_18
*929 NAND2X1_19
*930 _82_
*931 OR2X2_8
*932 NAND3X1_8
*933 _84_
*934 NAND3X1_8
*935 NAND2X1_21
*936 _79_
*937 AND2X2_8
*938 OAI21X1_20
*939 _80_
*940 OAI21X1_20
*941 NAND2X1_21
*942 _7_
*943 OAI21X1_30
*944 INVX1_14
*945 _85_
*946 INVX1_14
*947 OAI21X1_22
*948 _8_
*949 OAI21X1_38
*950 NAND2X1_22
*951 _86_
*952 NAND2X1_22
*953 OAI21X1_22
*954 _9_[0]
*955 NAND2X1_28
*956 INVX1_15
*957 _87_
*958 INVX1_15
*959 OAI21X1_23
*960 _10_[0]
*961 NAND2X1_36
*962 NAND2X1_23
*963 _88_
*964 NAND2X1_23
*965 OAI21X1_23
*966 _9_[1]
*967 NAND2X1_32
*968 INVX1_16
*969 _89_
*970 INVX1_16
*971 OAI21X1_24
*972 _10_[1]
*973 NAND2X1_40
*974 NAND2X1_24
*975 _90_
*976 NAND2X1_24
*977 OAI21X1_24
*978 _9_[2]
*979 NAND2X1_34
*980 INVX1_17
*981 _91_
*982 INVX1_17
*983 OAI21X1_25
*984 _10_[2]
*985 NAND2X1_42
*986 NAND2X1_25
*987 _92_
*988 NAND2X1_25
*989 OAI21X1_25
*990 _9_[3]
*991 NAND2X1_30
*992 INVX1_18
*993 _93_
*994 INVX1_18
*995 OAI21X1_26
*996 _10_[3]
*997 NAND2X1_38
*998 NAND2X1_26
*999 _94_
*1000 NAND2X1_26
*1001 OAI21X1_26
*1002 _99_
*1003 OR2X2_9
*1004 NAND3X1_9
*1005 _101_
*1006 NAND3X1_9
*1007 NAND2X1_28
*1008 _96_
*1009 AND2X2_9
*1010 OAI21X1_27
*1011 _97_
*1012 OAI21X1_27
*1013 NAND2X1_28
*1014 _106_
*1015 OR2X2_10
*1016 NAND3X1_10
*1017 _108_
*1018 NAND3X1_10
*1019 NAND2X1_30
*1020 _103_
*1021 AND2X2_10
*1022 OAI21X1_29
*1023 _104_
*1024 OAI21X1_29
*1025 NAND2X1_30
*1026 _113_
*1027 OR2X2_11
*1028 NAND3X1_11
*1029 _115_
*1030 NAND3X1_11
*1031 NAND2X1_32
*1032 _110_
*1033 AND2X2_11
*1034 OAI21X1_31
*1035 _111_
*1036 OAI21X1_31
*1037 NAND2X1_32
*1038 _120_
*1039 OR2X2_12
*1040 NAND3X1_12
*1041 _122_
*1042 NAND3X1_12
*1043 NAND2X1_34
*1044 _117_
*1045 AND2X2_12
*1046 OAI21X1_33
*1047 _118_
*1048 OAI21X1_33
*1049 NAND2X1_34
*1050 _127_
*1051 OR2X2_13
*1052 NAND3X1_13
*1053 _129_
*1054 NAND3X1_13
*1055 NAND2X1_36
*1056 _124_
*1057 AND2X2_13
*1058 OAI21X1_35
*1059 _125_
*1060 OAI21X1_35
*1061 NAND2X1_36
*1062 _134_
*1063 OR2X2_14
*1064 NAND3X1_14
*1065 _136_
*1066 NAND3X1_14
*1067 NAND2X1_38
*1068 _131_
*1069 AND2X2_14
*1070 OAI21X1_37
*1071 _132_
*1072 OAI21X1_37
*1073 NAND2X1_38
*1074 _141_
*1075 OR2X2_15
*1076 NAND3X1_15
*1077 _143_
*1078 NAND3X1_15
*1079 NAND2X1_40
*1080 _138_
*1081 AND2X2_15
*1082 OAI21X1_39
*1083 _139_
*1084 OAI21X1_39
*1085 NAND2X1_40
*1086 _148_
*1087 OR2X2_16
*1088 NAND3X1_16
*1089 _150_
*1090 NAND3X1_16
*1091 NAND2X1_42
*1092 _145_
*1093 AND2X2_16
*1094 OAI21X1_41
*1095 _146_
*1096 OAI21X1_41
*1097 NAND2X1_42
*1098 _13_
*1099 OAI21X1_51
*1100 INVX1_27
*1101 _151_
*1102 INVX1_27
*1103 OAI21X1_43
*1104 _14_
*1105 OAI21X1_59
*1106 NAND2X1_43
*1107 _152_
*1108 NAND2X1_43
*1109 OAI21X1_43
*1110 _15_[0]
*1111 NAND2X1_49
*1112 INVX1_28
*1113 _153_
*1114 INVX1_28
*1115 OAI21X1_44
*1116 _16_[0]
*1117 NAND2X1_57
*1118 NAND2X1_44
*1119 _154_
*1120 NAND2X1_44
*1121 OAI21X1_44
*1122 _15_[1]
*1123 NAND2X1_53
*1124 INVX1_29
*1125 _155_
*1126 INVX1_29
*1127 OAI21X1_45
*1128 _16_[1]
*1129 NAND2X1_61
*1130 NAND2X1_45
*1131 _156_
*1132 NAND2X1_45
*1133 OAI21X1_45
*1134 _15_[2]
*1135 NAND2X1_55
*1136 INVX1_30
*1137 _157_
*1138 INVX1_30
*1139 OAI21X1_46
*1140 _16_[2]
*1141 NAND2X1_63
*1142 NAND2X1_46
*1143 _158_
*1144 NAND2X1_46
*1145 OAI21X1_46
*1146 _15_[3]
*1147 NAND2X1_51
*1148 INVX1_31
*1149 _159_
*1150 INVX1_31
*1151 OAI21X1_47
*1152 _16_[3]
*1153 NAND2X1_59
*1154 NAND2X1_47
*1155 _160_
*1156 NAND2X1_47
*1157 OAI21X1_47
*1158 _165_
*1159 OR2X2_17
*1160 NAND3X1_17
*1161 _167_
*1162 NAND3X1_17
*1163 NAND2X1_49
*1164 _162_
*1165 AND2X2_17
*1166 OAI21X1_48
*1167 _163_
*1168 OAI21X1_48
*1169 NAND2X1_49
*1170 _172_
*1171 OR2X2_18
*1172 NAND3X1_18
*1173 _174_
*1174 NAND3X1_18
*1175 NAND2X1_51
*1176 _169_
*1177 AND2X2_18
*1178 OAI21X1_50
*1179 _170_
*1180 OAI21X1_50
*1181 NAND2X1_51
*1182 _179_
*1183 OR2X2_19
*1184 NAND3X1_19
*1185 _181_
*1186 NAND3X1_19
*1187 NAND2X1_53
*1188 _176_
*1189 AND2X2_19
*1190 OAI21X1_52
*1191 _177_
*1192 OAI21X1_52
*1193 NAND2X1_53
*1194 _186_
*1195 OR2X2_20
*1196 NAND3X1_20
*1197 _188_
*1198 NAND3X1_20
*1199 NAND2X1_55
*1200 _183_
*1201 AND2X2_20
*1202 OAI21X1_54
*1203 _184_
*1204 OAI21X1_54
*1205 NAND2X1_55
*1206 _193_
*1207 OR2X2_21
*1208 NAND3X1_21
*1209 _195_
*1210 NAND3X1_21
*1211 NAND2X1_57
*1212 _190_
*1213 AND2X2_21
*1214 OAI21X1_56
*1215 _191_
*1216 OAI21X1_56
*1217 NAND2X1_57
*1218 _200_
*1219 OR2X2_22
*1220 NAND3X1_22
*1221 _202_
*1222 NAND3X1_22
*1223 NAND2X1_59
*1224 _197_
*1225 AND2X2_22
*1226 OAI21X1_58
*1227 _198_
*1228 OAI21X1_58
*1229 NAND2X1_59
*1230 _207_
*1231 OR2X2_23
*1232 NAND3X1_23
*1233 _209_
*1234 NAND3X1_23
*1235 NAND2X1_61
*1236 _204_
*1237 AND2X2_23
*1238 OAI21X1_60
*1239 _205_
*1240 OAI21X1_60
*1241 NAND2X1_61
*1242 _214_
*1243 OR2X2_24
*1244 NAND3X1_24
*1245 _216_
*1246 NAND3X1_24
*1247 NAND2X1_63
*1248 _211_
*1249 AND2X2_24
*1250 OAI21X1_62
*1251 _212_
*1252 OAI21X1_62
*1253 NAND2X1_63
*1254 _221_
*1255 OR2X2_25
*1256 NAND3X1_25
*1257 _223_
*1258 NAND3X1_25
*1259 NAND2X1_65
*1260 _218_
*1261 AND2X2_25
*1262 OAI21X1_64
*1263 _219_
*1264 OAI21X1_64
*1265 NAND2X1_65
*1266 _228_
*1267 OR2X2_26
*1268 NAND3X1_26
*1269 _230_
*1270 NAND3X1_26
*1271 NAND2X1_67
*1272 _225_
*1273 AND2X2_26
*1274 OAI21X1_66
*1275 _226_
*1276 OAI21X1_66
*1277 NAND2X1_67
*1278 _235_
*1279 OR2X2_27
*1280 NAND3X1_27
*1281 _237_
*1282 NAND3X1_27
*1283 NAND2X1_69
*1284 _232_
*1285 AND2X2_27
*1286 OAI21X1_68
*1287 _233_
*1288 OAI21X1_68
*1289 NAND2X1_69
*1290 _242_
*1291 OR2X2_28
*1292 NAND3X1_28
*1293 _244_
*1294 NAND3X1_28
*1295 NAND2X1_71
*1296 _239_
*1297 AND2X2_28
*1298 OAI21X1_70
*1299 _240_
*1300 OAI21X1_70
*1301 NAND2X1_71

*PORTS
*38 I
*47 I
*56 I
*65 I
*74 I
*83 I
*85 I
*94 I
*103 I
*112 I
*121 I
*130 I
*139 I
*148 I
*157 I
*166 I
*175 I
*184 I
*193 I
*202 I
*211 I
*220 I
*229 I
*238 I
*240 I
*245 I
*247 I
*252 I
*257 I
*262 I
*267 I
*272 I
*716 O
*718 O
*720 O
*722 O
*724 O
*729 O
*734 O
*739 O
*744 O
*749 O
*754 O
*759 O
*764 O
*769 O
*774 O
*779 O
*784 O

*D_NET *1 0.00269808
*CONN
*I *2:Y O *D OAI21X1
*I *3:A I *L 0.0177118
*I *4:A I *L 0.0265312
*I *5:A I *L 0.0265312
*I *6:A I *L 0.0177118
*I *7:A I *L 0.0265312
*I *8:A I *L 0.0265312
*I *9:B I *L 0.0180112
*I *10:B I *L 0.0180112
*I *11:A I *L 0.0177118
*I *12:A I *L 0.0265312
*I *13:A I *L 0.0134147
*CAP
1 1_1 0.00044856
2 1_2 2.04e-05
3 1_3 8.784e-05
4 1_4 4.08e-05
5 1_5 0.000408
6 1_6 0
7 1_7 3.36e-05
8 1_8 0
9 1_9 0.0002016
10 1_10 2.04e-05
11 1_11 0.0004008
12 1_12 0.0002244
13 1_13 3.36e-05
14 1_14 0.0001836
15 1_15 2.04e-05
16 1_16 0.0002652
17 1_17 4.08e-05
18 1_18 2.04e-05
19 1_19 0.00019008
20 1_20 5.76e-05
*RES
1 *2:Y 1_1 5.46
2 1_1 1_2 0.233333
3 1_2 *3:A 0
4 1_2 1_3 1.77333
5 1_3 1_4 0.466667
6 1_4 *4:A 0
7 1_3 1_5 4.66667
8 1_5 1_6 0
9 1_6 *5:A 0
10 1_6 1_7 0.933333
11 1_7 1_8 0
12 1_8 *6:A 0
13 1_7 1_9 5.6
14 1_9 1_10 0.233333
15 1_10 *7:A 0
16 1_10 1_11 5.13333
17 1_11 1_12 2.56667
18 1_12 *8:A 0
19 1_11 1_13 0.933333
20 1_13 1_14 2.1
21 1_14 *9:B 0
22 1_13 1_15 0.233333
23 1_15 *10:B 0
24 1_6 1_16 3.03333
25 1_16 1_17 0.466667
26 1_17 1_18 0.233333
27 1_18 *11:A 0
28 1_18 1_19 2.61333
29 1_19 *12:A 0
30 1_16 1_20 0.373333
31 1_20 *13:A 0
*END
*D_NET *14 0.00229776
*CONN
*I *15:Y O *D OAI21X1
*I *16:A I *L 0.0177118
*I *17:A I *L 0.0265312
*I *18:B I *L 0.0180112
*I *19:A I *L 0.0265312
*I *20:A I *L 0.0177118
*I *21:A I *L 0.0265312
*I *22:A I *L 0.0177118
*I *23:A I *L 0.0265312
*I *24:B I *L 0.0180112
*I *25:A I *L 0.0265312
*CAP
1 14_1 0.00044448
2 14_2 6.12e-05
3 14_3 2.04e-05
4 14_4 0.0002652
5 14_5 2.016e-05
6 14_6 4.08e-05
7 14_7 6.768e-05
8 14_8 0.00026448
9 14_9 0.00017472
10 14_10 0.0001224
11 14_11 2.04e-05
12 14_12 3.36e-05
13 14_13 0.00011232
14 14_14 9.696e-05
15 14_15 0
16 14_16 0.0002172
17 14_17 0.00024096
18 14_18 6.12e-05
19 14_19 3.36e-05
*RES
1 *15:Y 14_1 12.3467
2 14_1 14_2 0.7
3 14_2 14_3 0.233333
4 14_3 *16:A 0
5 14_3 14_4 3.03333
6 14_4 14_5 0.56
7 14_5 14_6 0.466667
8 14_6 *17:A 0
9 14_5 14_7 1.21333
10 14_7 *18:B 0
11 14_4 14_8 4.01333
12 14_8 *19:A 0
13 14_1 14_9 4.85333
14 14_9 14_10 1.4
15 14_10 14_11 0.233333
16 14_11 *20:A 0
17 14_11 14_12 0.933333
18 14_12 *21:A 0
19 14_9 14_13 3.12
20 14_13 14_14 2.69333
21 14_14 14_15 0
22 14_15 *22:A 0
23 14_15 14_16 3.03333
24 14_16 *23:A 0
25 14_13 14_17 6.69333
26 14_17 14_18 0.7
27 14_18 *24:B 0
28 14_17 14_19 0.933333
29 14_19 *25:A 0
*END
*D_NET *26 0.00270432
*CONN
*I *27:Y O *D OAI21X1
*I *28:A I *L 0.0265312
*I *29:A I *L 0.0265312
*I *30:A I *L 0.0177118
*I *31:B I *L 0.0180112
*I *32:A I *L 0.0177118
*I *33:B I *L 0.0180112
*I *34:A I *L 0.0265312
*I *35:A I *L 0.0177118
*I *36:A I *L 0.0265312
*I *37:A I *L 0.0265312
*CAP
1 26_1 0
2 26_2 7.392e-05
3 26_3 0
4 26_4 0.0001968
5 26_5 2.04e-05
6 26_6 2.688e-05
7 26_7 0.00065928
8 26_8 2.04e-05
9 26_9 0.00023664
10 26_10 0.0002244
11 26_11 0.00011424
12 26_12 4.08e-05
13 26_13 0.00026472
14 26_14 2.04e-05
15 26_15 0.00037992
16 26_16 2.04e-05
17 26_17 0.0001968
18 26_18 0.00020832
*RES
1 *27:Y 26_1 0
2 26_1 26_2 2.05333
3 26_2 26_3 0
4 26_3 *28:A 0
5 26_2 26_4 2.8
6 26_4 26_5 0.233333
7 26_5 *29:A 0
8 26_5 26_6 0.746667
9 26_6 *30:A 0
10 26_1 26_7 7.98
11 26_7 26_8 0.233333
12 26_8 *31:B 0
13 26_8 26_9 2.70667
14 26_9 26_10 2.56667
15 26_10 *32:A 0
16 26_9 26_11 3.17333
17 26_11 26_12 0.466667
18 26_12 *33:B 0
19 26_11 26_13 3.68667
20 26_13 26_14 0.233333
21 26_14 *34:A 0
22 26_14 26_15 5.55333
23 26_15 26_16 0.233333
24 26_16 *35:A 0
25 26_16 26_17 2.8
26 26_17 *36:A 0
27 26_16 26_18 5.78667
28 26_18 *37:A 0
*END
*D_NET *38 0.00114432
*CONN
*P *38 O
*I *39:A I *L 0.0180033
*I *40:A I *L 0.0177118
*I *41:A I *L 0.0222369
*I *42:A I *L 0.0228068
*I *43:A I *L 0.0180033
*I *44:A I *L 0.0222369
*I *45:A I *L 0.0177118
*I *46:A I *L 0.0228068
*CAP
1 38_1 0.00021624
2 38_2 0
3 38_3 2.016e-05
4 38_4 2.016e-05
5 38_5 2.688e-05
6 38_6 4.92e-05
7 38_7 2.04e-05
8 38_8 0.0001224
9 38_9 0.0004284
10 38_10 2.04e-05
11 38_11 2.688e-05
12 38_12 2.04e-05
13 38_13 4.08e-05
14 38_14 5.76e-05
15 38_15 7.44e-05
*RES
1 *38 38_1 2.47333
2 38_1 38_2 0
3 38_2 *39:A 0
4 38_2 38_3 0.56
5 38_3 38_4 0.56
6 38_4 38_5 0.746667
7 38_5 *40:A 0
8 38_4 38_6 0.7
9 38_6 38_7 0.233333
10 38_7 *41:A 0
11 38_7 38_8 1.4
12 38_8 *42:A 0
13 38_3 38_9 4.9
14 38_9 38_10 0.233333
15 38_10 *43:A 0
16 38_10 38_11 0.746667
17 38_11 38_12 0.233333
18 38_12 38_13 0.466667
19 38_13 *44:A 0
20 38_12 38_14 0.373333
21 38_14 *45:A 0
22 38_11 38_15 1.4
23 38_15 *46:A 0
*END
*D_NET *47 0.00118104
*CONN
*P *47 O
*I *48:B I *L 0.0180112
*I *49:B I *L 0.0227534
*I *50:B I *L 0.0221869
*I *51:B I *L 0.0227534
*I *52:B I *L 0.0177358
*I *53:B I *L 0.0180112
*I *54:B I *L 0.0221869
*I *55:B I *L 0.0177358
*CAP
1 47_1 0.00016296
2 47_2 0
3 47_3 2.688e-05
4 47_4 4.92e-05
5 47_5 2.04e-05
6 47_6 0.00023664
7 47_7 2.04e-05
8 47_8 0.00030576
9 47_9 2.04e-05
10 47_10 8.4e-06
11 47_11 2.016e-05
12 47_12 6.072e-05
13 47_13 4.08e-05
14 47_14 0.0001272
15 47_15 8.112e-05
*RES
1 *47 47_1 2.19333
2 47_1 47_2 0
3 47_2 *48:B 0
4 47_1 47_3 0.746667
5 47_3 47_4 0.7
6 47_4 47_5 0.233333
7 47_5 *49:B 0
8 47_5 47_6 2.70667
9 47_6 47_7 0.233333
10 47_7 *50:B 0
11 47_7 47_8 3.82667
12 47_8 47_9 0.233333
13 47_9 *51:B 0
14 47_9 47_10 0.233333
15 47_10 47_11 0.56
16 47_11 *52:B 0
17 47_10 47_12 1.35333
18 47_12 47_13 0.466667
19 47_13 *53:B 0
20 47_12 47_14 1.02667
21 47_14 *54:B 0
22 47_3 47_15 1.58667
23 47_15 *55:B 0
*END
*D_NET *56 0.00118512
*CONN
*P *56 O
*I *57:A I *L 0.0180033
*I *58:A I *L 0.0222369
*I *59:A I *L 0.0228068
*I *60:A I *L 0.0177118
*I *61:A I *L 0.0177118
*I *62:A I *L 0.0222369
*I *63:A I *L 0.0180033
*I *64:A I *L 0.0228068
*CAP
1 56_1 8.784e-05
2 56_2 5.76e-05
3 56_3 4.08e-05
4 56_4 2.04e-05
5 56_5 0.00020328
6 56_6 2.04e-05
7 56_7 8.784e-05
8 56_8 2.04e-05
9 56_9 0.00025752
10 56_10 8.784e-05
11 56_11 2.04e-05
12 56_12 0.0001428
13 56_13 8.4e-06
14 56_14 0.0001296
*RES
1 *56 56_1 1.77333
2 56_1 56_2 0.373333
3 56_2 *57:A 0
4 56_1 56_3 0.466667
5 56_3 56_4 0.233333
6 56_4 *58:A 0
7 56_4 56_5 3.31333
8 56_5 56_6 0.233333
9 56_6 *59:A 0
10 56_6 56_7 1.77333
11 56_7 56_8 0.233333
12 56_8 *60:A 0
13 56_8 56_9 4.15333
14 56_9 56_10 1.77333
15 56_10 56_11 0.233333
16 56_11 *61:A 0
17 56_11 56_12 1.63333
18 56_12 *62:A 0
19 56_9 56_13 0.233333
20 56_13 *63:A 0
21 56_13 56_14 0.84
22 56_14 *64:A 0
*END
*D_NET *65 0.00110616
*CONN
*P *65 O
*I *66:B I *L 0.0227534
*I *67:B I *L 0.0180112
*I *68:B I *L 0.0221869
*I *69:B I *L 0.0177358
*I *70:B I *L 0.0180112
*I *71:B I *L 0.0227534
*I *72:B I *L 0.0221869
*I *73:B I *L 0.0177358
*CAP
1 65_1 0.00012168
2 65_2 2.04e-05
3 65_3 8.16e-05
4 65_4 7.392e-05
5 65_5 0.0001428
6 65_6 4.08e-05
7 65_7 6.768e-05
8 65_8 0.00013512
9 65_9 2.688e-05
10 65_10 0
11 65_11 4.728e-05
12 65_12 6.12e-05
13 65_13 0.0001836
14 65_14 8.4e-06
15 65_15 9.48e-05
*RES
1 *65 65_1 2.38
2 65_1 65_2 0.233333
3 65_2 *66:B 0
4 65_2 65_3 0.933333
5 65_3 65_4 2.05333
6 65_4 65_5 1.63333
7 65_5 65_6 0.466667
8 65_6 *67:B 0
9 65_5 65_7 1.21333
10 65_7 *68:B 0
11 65_4 65_8 2.75333
12 65_8 65_9 0.746667
13 65_9 65_10 0
14 65_10 *69:B 0
15 65_9 65_11 0.98
16 65_11 65_12 0.7
17 65_12 *70:B 0
18 65_11 65_13 2.1
19 65_13 *71:B 0
20 65_8 65_14 0.233333
21 65_14 *72:B 0
22 65_3 65_15 1.63333
23 65_15 *73:B 0
*END
*D_NET *74 0.00090672
*CONN
*P *74 O
*I *75:A I *L 0.0222369
*I *76:A I *L 0.0177118
*I *77:A I *L 0.0177118
*I *78:A I *L 0.0228068
*I *79:A I *L 0.0222369
*I *80:A I *L 0.0180033
*I *81:A I *L 0.0228068
*I *82:A I *L 0.0180033
*CAP
1 74_1 0.0001836
2 74_2 4.08e-05
3 74_3 2.04e-05
4 74_4 2.688e-05
5 74_5 3.36e-05
6 74_6 0
7 74_7 5.376e-05
8 74_8 0
9 74_9 2.688e-05
10 74_10 4.92e-05
11 74_11 0.00016296
12 74_12 2.04e-05
13 74_13 9.84e-05
14 74_14 0.0001428
15 74_15 4.704e-05
*RES
1 *74 74_1 2.1
2 74_1 74_2 0.466667
3 74_2 *75:A 0
4 74_1 74_3 0.233333
5 74_3 74_4 0.746667
6 74_4 74_5 0.933333
7 74_5 74_6 0
8 74_6 *76:A 0
9 74_5 74_7 1.49333
10 74_7 74_8 0
11 74_8 *77:A 0
12 74_7 74_9 0.746667
13 74_9 74_10 0.7
14 74_10 *78:A 0
15 74_9 74_11 2.19333
16 74_11 74_12 0.233333
17 74_12 *79:A 0
18 74_12 74_13 0.84
19 74_13 *80:A 0
20 74_4 74_14 1.63333
21 74_14 *81:A 0
22 74_3 74_15 1.30667
23 74_15 *82:A 0
*END
*D_NET *83 0.0001428
*CONN
*P *83 O
*I *84:ERROR I *L 0
*CAP
1 83_1 0.0001428
*RES
1 *83 83_1 1.63333
2 83_1 *84:ERROR 0
*END
*D_NET *85 0.00090312
*CONN
*P *85 O
*I *86:A I *L 0.0228068
*I *87:A I *L 0.0177118
*I *88:A I *L 0.0222369
*I *89:A I *L 0.0177118
*I *90:A I *L 0.0228068
*I *91:A I *L 0.0222369
*I *92:A I *L 0.0180033
*I *93:A I *L 0.0180033
*CAP
1 85_1 2.016e-05
2 85_2 9e-05
3 85_3 9.48e-05
4 85_4 2.04e-05
5 85_5 0.00015504
6 85_6 0
7 85_7 9.84e-05
8 85_8 1.344e-05
9 85_9 2.688e-05
10 85_10 0
11 85_11 0.0001224
12 85_12 2.04e-05
13 85_13 9.84e-05
14 85_14 0.0001428
*RES
1 *85 85_1 0.56
2 85_1 85_2 1.16667
3 85_2 *86:A 0
4 85_1 85_3 1.63333
5 85_3 85_4 0.233333
6 85_4 *87:A 0
7 85_4 85_5 3.64
8 85_5 85_6 0
9 85_6 *88:A 0
10 85_6 85_7 0.84
11 85_7 *89:A 0
12 85_5 85_8 0.373333
13 85_8 85_9 0.746667
14 85_9 85_10 0
15 85_10 *90:A 0
16 85_10 85_11 1.4
17 85_11 85_12 0.233333
18 85_12 *91:A 0
19 85_12 85_13 0.84
20 85_13 *92:A 0
21 85_8 85_14 1.63333
22 85_14 *93:A 0
*END
*D_NET *94 0.0010644
*CONN
*P *94 O
*I *95:B I *L 0.0221869
*I *96:B I *L 0.0180112
*I *97:B I *L 0.0227534
*I *98:B I *L 0.0177358
*I *99:B I *L 0.0180112
*I *100:B I *L 0.0221869
*I *101:B I *L 0.0177358
*I *102:B I *L 0.0227534
*CAP
1 94_1 2.688e-05
2 94_2 8.4e-06
3 94_3 6.072e-05
4 94_4 6.12e-05
5 94_5 0.00014856
6 94_6 8.16e-05
7 94_7 2.016e-05
8 94_8 0.0001224
9 94_9 2.016e-05
10 94_10 1.344e-05
11 94_11 6.12e-05
12 94_12 6.12e-05
13 94_13 8.64e-05
14 94_14 0.00014928
15 94_15 0.0001428
*RES
1 *94 94_1 0.746667
2 94_1 94_2 0.233333
3 94_2 *95:B 0
4 94_1 94_3 1.35333
5 94_3 94_4 0.7
6 94_4 *96:B 0
7 94_3 94_5 3.12667
8 94_5 94_6 0.933333
9 94_6 *97:B 0
10 94_5 94_7 0.56
11 94_7 94_8 1.4
12 94_8 *98:B 0
13 94_7 94_9 0.56
14 94_9 94_10 0.373333
15 94_10 94_11 0.7
16 94_11 94_12 0.7
17 94_12 *99:B 0
18 94_11 94_13 0.56
19 94_13 *100:B 0
20 94_10 94_14 2.14667
21 94_14 *101:B 0
22 94_9 94_15 1.63333
23 94_15 *102:B 0
*END
*D_NET *103 0.00136176
*CONN
*P *103 O
*I *104:A I *L 0.0228068
*I *105:A I *L 0.0180033
*I *106:A I *L 0.0177118
*I *107:A I *L 0.0222369
*I *108:A I *L 0.0177118
*I *109:A I *L 0.0228068
*I *110:A I *L 0.0222369
*I *111:A I *L 0.0180033
*CAP
1 103_1 3.36e-05
2 103_2 9e-05
3 103_3 0.0005232
4 103_4 8.088e-05
5 103_5 6.12e-05
6 103_6 2.04e-05