*SPICE netlist created from BLIF module CSkipA_57bit by blif2BSpice
.include /usr/local/share/qflow/tech/osu035/osu035_stdcells.sp
.subckt CSkipA_57bit vdd gnd i_add_term1[0] i_add_term1[1] i_add_term1[2] i_add_term1[3] i_add_term1[4] i_add_term1[5] i_add_term1[6] i_add_term1[7] i_add_term1[8] i_add_term1[9] i_add_term1[10] i_add_term1[11] i_add_term1[12] i_add_term1[13] i_add_term1[14] i_add_term1[15] i_add_term1[16] i_add_term1[17] i_add_term1[18] i_add_term1[19] i_add_term1[20] i_add_term1[21] i_add_term1[22] i_add_term1[23] i_add_term1[24] i_add_term1[25] i_add_term1[26] i_add_term1[27] i_add_term1[28] i_add_term1[29] i_add_term1[30] i_add_term1[31] i_add_term1[32] i_add_term1[33] i_add_term1[34] i_add_term1[35] i_add_term1[36] i_add_term1[37] i_add_term1[38] i_add_term1[39] i_add_term1[40] i_add_term1[41] i_add_term1[42] i_add_term1[43] i_add_term1[44] i_add_term1[45] i_add_term1[46] i_add_term1[47] i_add_term1[48] i_add_term1[49] i_add_term1[50] i_add_term1[51] i_add_term1[52] i_add_term1[53] i_add_term1[54] i_add_term1[55] i_add_term1[56] i_add_term2[0] i_add_term2[1] i_add_term2[2] i_add_term2[3] i_add_term2[4] i_add_term2[5] i_add_term2[6] i_add_term2[7] i_add_term2[8] i_add_term2[9] i_add_term2[10] i_add_term2[11] i_add_term2[12] i_add_term2[13] i_add_term2[14] i_add_term2[15] i_add_term2[16] i_add_term2[17] i_add_term2[18] i_add_term2[19] i_add_term2[20] i_add_term2[21] i_add_term2[22] i_add_term2[23] i_add_term2[24] i_add_term2[25] i_add_term2[26] i_add_term2[27] i_add_term2[28] i_add_term2[29] i_add_term2[30] i_add_term2[31] i_add_term2[32] i_add_term2[33] i_add_term2[34] i_add_term2[35] i_add_term2[36] i_add_term2[37] i_add_term2[38] i_add_term2[39] i_add_term2[40] i_add_term2[41] i_add_term2[42] i_add_term2[43] i_add_term2[44] i_add_term2[45] i_add_term2[46] i_add_term2[47] i_add_term2[48] i_add_term2[49] i_add_term2[50] i_add_term2[51] i_add_term2[52] i_add_term2[53] i_add_term2[54] i_add_term2[55] i_add_term2[56] sum[0] sum[1] sum[2] sum[3] sum[4] sum[5] sum[6] sum[7] sum[8] sum[9] sum[10] sum[11] sum[12] sum[13] sum[14] sum[15] sum[16] sum[17] sum[18] sum[19] sum[20] sum[21] sum[22] sum[23] sum[24] sum[25] sum[26] sum[27] sum[28] sum[29] sum[30] sum[31] sum[32] sum[33] sum[34] sum[35] sum[36] sum[37] sum[38] sum[39] sum[40] sum[41] sum[42] sum[43] sum[44] sum[45] sum[46] sum[47] sum[48] sum[49] sum[50] sum[51] sum[52] sum[53] sum[54] sum[55] sum[56] cout 
XNOR2X1_1 vdd i_add_term1[20] gnd _269_ i_add_term2[20] NOR2X1
XOAI21X1_1 gnd vdd _267_ _269_ _17_[1] _268_ OAI21X1
XOR2X2_1 _263_ i_add_term1[20] vdd gnd i_add_term2[20] OR2X2
XNAND3X1_1 _268_ vdd gnd _267_ _263_ _264_ NAND3X1
XAND2X2_1 vdd gnd i_add_term2[20] i_add_term1[20] _265_ AND2X2
XOAI21X1_2 gnd vdd _269_ _265_ _266_ w_cout[5] OAI21X1
XNAND2X1_1 vdd _0_[20] gnd _266_ _264_ NAND2X1
XINVX1_1 _17_[3] _274_ vdd gnd INVX1
XNAND2X1_2 vdd _275_ gnd i_add_term2[23] i_add_term1[23] NAND2X1
XNOR2X1_2 vdd i_add_term1[23] gnd _276_ i_add_term2[23] NOR2X1
XOAI21X1_3 gnd vdd _274_ _276_ _16_ _275_ OAI21X1
XOR2X2_2 _270_ i_add_term1[23] vdd gnd i_add_term2[23] OR2X2
XNAND3X1_2 _275_ vdd gnd _274_ _270_ _271_ NAND3X1
XAND2X2_2 vdd gnd i_add_term2[23] i_add_term1[23] _272_ AND2X2
XOAI21X1_4 gnd vdd _276_ _272_ _273_ _17_[3] OAI21X1
XNAND2X1_3 vdd _0_[23] gnd _273_ _271_ NAND2X1
XINVX1_2 _17_[1] _281_ vdd gnd INVX1
XNAND2X1_4 vdd _282_ gnd i_add_term2[21] i_add_term1[21] NAND2X1
XNOR2X1_3 vdd i_add_term1[21] gnd _283_ i_add_term2[21] NOR2X1
XOAI21X1_5 gnd vdd _281_ _283_ _17_[2] _282_ OAI21X1
XOR2X2_3 _277_ i_add_term1[21] vdd gnd i_add_term2[21] OR2X2
XNAND3X1_3 _282_ vdd gnd _281_ _277_ _278_ NAND3X1
XAND2X2_3 vdd gnd i_add_term2[21] i_add_term1[21] _279_ AND2X2
XOAI21X1_6 gnd vdd _283_ _279_ _280_ _17_[1] OAI21X1
XNAND2X1_5 vdd _0_[21] gnd _280_ _278_ NAND2X1
XINVX1_3 _17_[2] _288_ vdd gnd INVX1
XNAND2X1_6 vdd _289_ gnd i_add_term2[22] i_add_term1[22] NAND2X1
XNOR2X1_4 vdd i_add_term1[22] gnd _290_ i_add_term2[22] NOR2X1
XOAI21X1_7 gnd vdd _288_ _290_ _17_[3] _289_ OAI21X1
XOR2X2_4 _284_ i_add_term1[22] vdd gnd i_add_term2[22] OR2X2
XNAND3X1_4 _289_ vdd gnd _288_ _284_ _285_ NAND3X1
XAND2X2_4 vdd gnd i_add_term2[22] i_add_term1[22] _286_ AND2X2
XOAI21X1_8 gnd vdd _290_ _286_ _287_ _17_[2] OAI21X1
XNAND2X1_7 vdd _0_[22] gnd _287_ _285_ NAND2X1
XINVX1_4 i_add_term1[20] _291_ vdd gnd INVX1
XNOR2X1_5 vdd _291_ gnd _292_ i_add_term2[20] NOR2X1
XINVX1_5 i_add_term2[20] _293_ vdd gnd INVX1
XNOR2X1_6 vdd _293_ gnd _294_ i_add_term1[20] NOR2X1
XINVX1_6 i_add_term1[21] _295_ vdd gnd INVX1
XNOR2X1_7 vdd _295_ gnd _296_ i_add_term2[21] NOR2X1
XINVX1_7 i_add_term2[21] _297_ vdd gnd INVX1
XNOR2X1_8 vdd _297_ gnd _298_ i_add_term1[21] NOR2X1
XOAI22X1_1 gnd vdd _298_ _296_ _292_ _294_ _299_ OAI22X1
XNOR2X1_9 vdd i_add_term1[23] gnd _300_ i_add_term2[23] NOR2X1
XAND2X2_5 vdd gnd i_add_term2[23] i_add_term1[23] _301_ AND2X2
XNOR2X1_10 vdd _301_ gnd _302_ _300_ NOR2X1
XXOR2X1_1 _303_ vdd i_add_term1[22] i_add_term2[22] gnd XOR2X1
XNAND2X1_8 vdd _304_ gnd _302_ _303_ NAND2X1
XNOR2X1_11 vdd _304_ gnd _18_ _299_ NOR2X1
XINVX1_8 _16_ _305_ vdd gnd INVX1
XNAND2X1_9 vdd _306_ gnd gnd _18_ NAND2X1
XOAI21X1_9 gnd vdd _18_ _305_ w_cout[6] _306_ OAI21X1
XINVX1_9 w_cout[6] _311_ vdd gnd INVX1
XNAND2X1_10 vdd _312_ gnd i_add_term2[24] i_add_term1[24] NAND2X1
XNOR2X1_12 vdd i_add_term1[24] gnd _313_ i_add_term2[24] NOR2X1
XOAI21X1_10 gnd vdd _311_ _313_ _20_[1] _312_ OAI21X1
XOR2X2_5 _307_ i_add_term1[24] vdd gnd i_add_term2[24] OR2X2
XNAND3X1_5 _312_ vdd gnd _311_ _307_ _308_ NAND3X1
XAND2X2_6 vdd gnd i_add_term2[24] i_add_term1[24] _309_ AND2X2
XOAI21X1_11 gnd vdd _313_ _309_ _310_ w_cout[6] OAI21X1
XNAND2X1_11 vdd _0_[24] gnd _310_ _308_ NAND2X1
XINVX1_10 _20_[3] _318_ vdd gnd INVX1
XNAND2X1_12 vdd _319_ gnd i_add_term2[27] i_add_term1[27] NAND2X1
XNOR2X1_13 vdd i_add_term1[27] gnd _320_ i_add_term2[27] NOR2X1
XOAI21X1_12 gnd vdd _318_ _320_ _19_ _319_ OAI21X1
XOR2X2_6 _314_ i_add_term1[27] vdd gnd i_add_term2[27] OR2X2
XNAND3X1_6 _319_ vdd gnd _318_ _314_ _315_ NAND3X1
XAND2X2_7 vdd gnd i_add_term2[27] i_add_term1[27] _316_ AND2X2
XOAI21X1_13 gnd vdd _320_ _316_ _317_ _20_[3] OAI21X1
XNAND2X1_13 vdd _0_[27] gnd _317_ _315_ NAND2X1
XINVX1_11 _20_[1] _325_ vdd gnd INVX1
XNAND2X1_14 vdd _326_ gnd i_add_term2[25] i_add_term1[25] NAND2X1
XNOR2X1_14 vdd i_add_term1[25] gnd _327_ i_add_term2[25] NOR2X1
XOAI21X1_14 gnd vdd _325_ _327_ _20_[2] _326_ OAI21X1
XOR2X2_7 _321_ i_add_term1[25] vdd gnd i_add_term2[25] OR2X2
XNAND3X1_7 _326_ vdd gnd _325_ _321_ _322_ NAND3X1
XAND2X2_8 vdd gnd i_add_term2[25] i_add_term1[25] _323_ AND2X2
XOAI21X1_15 gnd vdd _327_ _323_ _324_ _20_[1] OAI21X1
XNAND2X1_15 vdd _0_[25] gnd _324_ _322_ NAND2X1
XINVX1_12 _20_[2] _332_ vdd gnd INVX1
XNAND2X1_16 vdd _333_ gnd i_add_term2[26] i_add_term1[26] NAND2X1
XNOR2X1_15 vdd i_add_term1[26] gnd _334_ i_add_term2[26] NOR2X1
XOAI21X1_16 gnd vdd _332_ _334_ _20_[3] _333_ OAI21X1
XOR2X2_8 _328_ i_add_term1[26] vdd gnd i_add_term2[26] OR2X2
XNAND3X1_8 _333_ vdd gnd _332_ _328_ _329_ NAND3X1
XAND2X2_9 vdd gnd i_add_term2[26] i_add_term1[26] _330_ AND2X2
XOAI21X1_17 gnd vdd _334_ _330_ _331_ _20_[2] OAI21X1
XNAND2X1_17 vdd _0_[26] gnd _331_ _329_ NAND2X1
XINVX1_13 i_add_term1[24] _335_ vdd gnd INVX1
XNOR2X1_16 vdd _335_ gnd _336_ i_add_term2[24] NOR2X1
XINVX1_14 i_add_term2[24] _337_ vdd gnd INVX1
XNOR2X1_17 vdd _337_ gnd _338_ i_add_term1[24] NOR2X1
XINVX1_15 i_add_term1[25] _339_ vdd gnd INVX1
XNOR2X1_18 vdd _339_ gnd _340_ i_add_term2[25] NOR2X1
XINVX1_16 i_add_term2[25] _341_ vdd gnd INVX1
XNOR2X1_19 vdd _341_ gnd _342_ i_add_term1[25] NOR2X1
XOAI22X1_2 gnd vdd _342_ _340_ _336_ _338_ _343_ OAI22X1
XNOR2X1_20 vdd i_add_term1[27] gnd _344_ i_add_term2[27] NOR2X1
XAND2X2_10 vdd gnd i_add_term2[27] i_add_term1[27] _345_ AND2X2
XNOR2X1_21 vdd _345_ gnd _346_ _344_ NOR2X1
XXOR2X1_2 _347_ vdd i_add_term1[26] i_add_term2[26] gnd XOR2X1
XNAND2X1_18 vdd _348_ gnd _346_ _347_ NAND2X1
XNOR2X1_22 vdd _348_ gnd _21_ _343_ NOR2X1
XINVX1_17 _19_ _349_ vdd gnd INVX1
XNAND2X1_19 vdd _350_ gnd gnd _21_ NAND2X1
XOAI21X1_18 gnd vdd _21_ _349_ w_cout[7] _350_ OAI21X1
XINVX1_18 w_cout[7] _355_ vdd gnd INVX1
XNAND2X1_20 vdd _356_ gnd i_add_term2[28] i_add_term1[28] NAND2X1
XNOR2X1_23 vdd i_add_term1[28] gnd _357_ i_add_term2[28] NOR2X1
XOAI21X1_19 gnd vdd _355_ _357_ _23_[1] _356_ OAI21X1
XOR2X2_9 _351_ i_add_term1[28] vdd gnd i_add_term2[28] OR2X2
XNAND3X1_9 _356_ vdd gnd _355_ _351_ _352_ NAND3X1
XAND2X2_11 vdd gnd i_add_term2[28] i_add_term1[28] _353_ AND2X2
XOAI21X1_20 gnd vdd _357_ _353_ _354_ w_cout[7] OAI21X1
XNAND2X1_21 vdd _0_[28] gnd _354_ _352_ NAND2X1
XINVX1_19 _23_[3] _362_ vdd gnd INVX1
XNAND2X1_22 vdd _363_ gnd i_add_term2[31] i_add_term1[31] NAND2X1
XNOR2X1_24 vdd i_add_term1[31] gnd _364_ i_add_term2[31] NOR2X1
XOAI21X1_21 gnd vdd _362_ _364_ _22_ _363_ OAI21X1
XOR2X2_10 _358_ i_add_term1[31] vdd gnd i_add_term2[31] OR2X2
XNAND3X1_10 _363_ vdd gnd _362_ _358_ _359_ NAND3X1
XAND2X2_12 vdd gnd i_add_term2[31] i_add_term1[31] _360_ AND2X2
XOAI21X1_22 gnd vdd _364_ _360_ _361_ _23_[3] OAI21X1
XNAND2X1_23 vdd _0_[31] gnd _361_ _359_ NAND2X1
XINVX1_20 _23_[1] _369_ vdd gnd INVX1
XNAND2X1_24 vdd _370_ gnd i_add_term2[29] i_add_term1[29] NAND2X1
XNOR2X1_25 vdd i_add_term1[29] gnd _371_ i_add_term2[29] NOR2X1
XOAI21X1_23 gnd vdd _369_ _371_ _23_[2] _370_ OAI21X1
XOR2X2_11 _365_ i_add_term1[29] vdd gnd i_add_term2[29] OR2X2
XNAND3X1_11 _370_ vdd gnd _369_ _365_ _366_ NAND3X1
XAND2X2_13 vdd gnd i_add_term2[29] i_add_term1[29] _367_ AND2X2
XOAI21X1_24 gnd vdd _371_ _367_ _368_ _23_[1] OAI21X1
XNAND2X1_25 vdd _0_[29] gnd _368_ _366_ NAND2X1
XINVX1_21 _23_[2] _376_ vdd gnd INVX1
XNAND2X1_26 vdd _377_ gnd i_add_term2[30] i_add_term1[30] NAND2X1
XNOR2X1_26 vdd i_add_term1[30] gnd _378_ i_add_term2[30] NOR2X1
XOAI21X1_25 gnd vdd _376_ _378_ _23_[3] _377_ OAI21X1
XOR2X2_12 _372_ i_add_term1[30] vdd gnd i_add_term2[30] OR2X2
XNAND3X1_12 _377_ vdd gnd _376_ _372_ _373_ NAND3X1
XAND2X2_14 vdd gnd i_add_term2[30] i_add_term1[30] _374_ AND2X2
XOAI21X1_26 gnd vdd _378_ _374_ _375_ _23_[2] OAI21X1
XNAND2X1_27 vdd _0_[30] gnd _375_ _373_ NAND2X1
XINVX1_22 i_add_term1[28] _379_ vdd gnd INVX1
XNOR2X1_27 vdd _379_ gnd _380_ i_add_term2[28] NOR2X1
XINVX1_23 i_add_term2[28] _381_ vdd gnd INVX1
XNOR2X1_28 vdd _381_ gnd _382_ i_add_term1[28] NOR2X1
XINVX1_24 i_add_term1[29] _383_ vdd gnd INVX1
XNOR2X1_29 vdd _383_ gnd _384_ i_add_term2[29] NOR2X1
XINVX1_25 i_add_term2[29] _385_ vdd gnd INVX1
XNOR2X1_30 vdd _385_ gnd _386_ i_add_term1[29] NOR2X1
XOAI22X1_3 gnd vdd _386_ _384_ _380_ _382_ _387_ OAI22X1
XNOR2X1_31 vdd i_add_term1[31] gnd _388_ i_add_term2[31] NOR2X1
XAND2X2_15 vdd gnd i_add_term2[31] i_add_term1[31] _389_ AND2X2
XNOR2X1_32 vdd _389_ gnd _390_ _388_ NOR2X1
XXOR2X1_3 _391_ vdd i_add_term1[30] i_add_term2[30] gnd XOR2X1
XNAND2X1_28 vdd _392_ gnd _390_ _391_ NAND2X1
XNOR2X1_33 vdd _392_ gnd _24_ _387_ NOR2X1
XINVX1_26 _22_ _393_ vdd gnd INVX1
XNAND2X1_29 vdd _394_ gnd gnd _24_ NAND2X1
XOAI21X1_27 gnd vdd _24_ _393_ w_cout[8] _394_ OAI21X1
XINVX1_27 w_cout[8] _399_ vdd gnd INVX1
XNAND2X1_30 vdd _400_ gnd i_add_term2[32] i_add_term1[32] NAND2X1
XNOR2X1_34 vdd i_add_term1[32] gnd _401_ i_add_term2[32] NOR2X1
XOAI21X1_28 gnd vdd _399_ _401_ _26_[1] _400_ OAI21X1
XOR2X2_13 _395_ i_add_term1[32] vdd gnd i_add_term2[32] OR2X2
XNAND3X1_13 _400_ vdd gnd _399_ _395_ _396_ NAND3X1
XAND2X2_16 vdd gnd i_add_term2[32] i_add_term1[32] _397_ AND2X2
XOAI21X1_29 gnd vdd _401_ _397_ _398_ w_cout[8] OAI21X1
XNAND2X1_31 vdd _0_[32] gnd _398_ _396_ NAND2X1
XINVX1_28 _26_[3] _406_ vdd gnd INVX1
XNAND2X1_32 vdd _407_ gnd i_add_term2[35] i_add_term1[35] NAND2X1
XNOR2X1_35 vdd i_add_term1[35] gnd _408_ i_add_term2[35] NOR2X1
XOAI21X1_30 gnd vdd _406_ _408_ _25_ _407_ OAI21X1
XOR2X2_14 _402_ i_add_term1[35] vdd gnd i_add_term2[35] OR2X2
XNAND3X1_14 _407_ vdd gnd _406_ _402_ _403_ NAND3X1
XAND2X2_17 vdd gnd i_add_term2[35] i_add_term1[35] _404_ AND2X2
XOAI21X1_31 gnd vdd _408_ _404_ _405_ _26_[3] OAI21X1
XNAND2X1_33 vdd _0_[35] gnd _405_ _403_ NAND2X1
XINVX1_29 _26_[1] _413_ vdd gnd INVX1
XNAND2X1_34 vdd _414_ gnd i_add_term2[33] i_add_term1[33] NAND2X1
XNOR2X1_36 vdd i_add_term1[33] gnd _415_ i_add_term2[33] NOR2X1
XOAI21X1_32 gnd vdd _413_ _415_ _26_[2] _414_ OAI21X1
XOR2X2_15 _409_ i_add_term1[33] vdd gnd i_add_term2[33] OR2X2
XNAND3X1_15 _414_ vdd gnd _413_ _409_ _410_ NAND3X1
XAND2X2_18 vdd gnd i_add_term2[33] i_add_term1[33] _411_ AND2X2
XOAI21X1_33 gnd vdd _415_ _411_ _412_ _26_[1] OAI21X1
XNAND2X1_35 vdd _0_[33] gnd _412_ _410_ NAND2X1
XINVX1_30 _26_[2] _420_ vdd gnd INVX1
XNAND2X1_36 vdd _421_ gnd i_add_term2[34] i_add_term1[34] NAND2X1
XNOR2X1_37 vdd i_add_term1[34] gnd _422_ i_add_term2[34] NOR2X1
XOAI21X1_34 gnd vdd _420_ _422_ _26_[3] _421_ OAI21X1
XOR2X2_16 _416_ i_add_term1[34] vdd gnd i_add_term2[34] OR2X2
XNAND3X1_16 _421_ vdd gnd _420_ _416_ _417_ NAND3X1
XAND2X2_19 vdd gnd i_add_term2[34] i_add_term1[34] _418_ AND2X2
XOAI21X1_35 gnd vdd _422_ _418_ _419_ _26_[2] OAI21X1
XNAND2X1_37 vdd _0_[34] gnd _419_ _417_ NAND2X1
XINVX1_31 i_add_term1[32] _423_ vdd gnd INVX1
XNOR2X1_38 vdd _423_ gnd _424_ i_add_term2[32] NOR2X1
XINVX1_32 i_add_term2[32] _425_ vdd gnd INVX1
XNOR2X1_39 vdd _425_ gnd _426_ i_add_term1[32] NOR2X1
XINVX1_33 i_add_term1[33] _427_ vdd gnd INVX1
XNOR2X1_40 vdd _427_ gnd _428_ i_add_term2[33] NOR2X1
XINVX1_34 i_add_term2[33] _429_ vdd gnd INVX1
XNOR2X1_41 vdd _429_ gnd _430_ i_add_term1[33] NOR2X1
XOAI22X1_4 gnd vdd _430_ _428_ _424_ _426_ _431_ OAI22X1
XNOR2X1_42 vdd i_add_term1[35] gnd _432_ i_add_term2[35] NOR2X1
XAND2X2_20 vdd gnd i_add_term2[35] i_add_term1[35] _433_ AND2X2
XNOR2X1_43 vdd _433_ gnd _434_ _432_ NOR2X1
XXOR2X1_4 _435_ vdd i_add_term1[34] i_add_term2[34] gnd XOR2X1
XNAND2X1_38 vdd _436_ gnd _434_ _435_ NAND2X1
XNOR2X1_44 vdd _436_ gnd _27_ _431_ NOR2X1
XINVX1_35 _25_ _437_ vdd gnd INVX1
XNAND2X1_39 vdd _438_ gnd gnd _27_ NAND2X1
XOAI21X1_36 gnd vdd _27_ _437_ w_cout[9] _438_ OAI21X1
XINVX1_36 w_cout[9] _443_ vdd gnd INVX1
XNAND2X1_40 vdd _444_ gnd i_add_term2[36] i_add_term1[36] NAND2X1
XNOR2X1_45 vdd i_add_term1[36] gnd _445_ i_add_term2[36] NOR2X1
XOAI21X1_37 gnd vdd _443_ _445_ _29_[1] _444_ OAI21X1
XOR2X2_17 _439_ i_add_term1[36] vdd gnd i_add_term2[36] OR2X2
XNAND3X1_17 _444_ vdd gnd _443_ _439_ _440_ NAND3X1
XAND2X2_21 vdd gnd i_add_term2[36] i_add_term1[36] _441_ AND2X2
XOAI21X1_38 gnd vdd _445_ _441_ _442_ w_cout[9] OAI21X1
XNAND2X1_41 vdd _0_[36] gnd _442_ _440_ NAND2X1
XINVX1_37 _29_[3] _450_ vdd gnd INVX1
XNAND2X1_42 vdd _451_ gnd i_add_term2[39] i_add_term1[39] NAND2X1
XNOR2X1_46 vdd i_add_term1[39] gnd _452_ i_add_term2[39] NOR2X1
XOAI21X1_39 gnd vdd _450_ _452_ _28_ _451_ OAI21X1
XOR2X2_18 _446_ i_add_term1[39] vdd gnd i_add_term2[39] OR2X2
XNAND3X1_18 _451_ vdd gnd _450_ _446_ _447_ NAND3X1
XAND2X2_22 vdd gnd i_add_term2[39] i_add_term1[39] _448_ AND2X2
XOAI21X1_40 gnd vdd _452_ _448_ _449_ _29_[3] OAI21X1
XNAND2X1_43 vdd _0_[39] gnd _449_ _447_ NAND2X1
XINVX1_38 _29_[1] _457_ vdd gnd INVX1
XNAND2X1_44 vdd _458_ gnd i_add_term2[37] i_add_term1[37] NAND2X1
XNOR2X1_47 vdd i_add_term1[37] gnd _459_ i_add_term2[37] NOR2X1
XOAI21X1_41 gnd vdd _457_ _459_ _29_[2] _458_ OAI21X1
XOR2X2_19 _453_ i_add_term1[37] vdd gnd i_add_term2[37] OR2X2
XNAND3X1_19 _458_ vdd gnd _457_ _453_ _454_ NAND3X1
XAND2X2_23 vdd gnd i_add_term2[37] i_add_term1[37] _455_ AND2X2
XOAI21X1_42 gnd vdd _459_ _455_ _456_ _29_[1] OAI21X1
XNAND2X1_45 vdd _0_[37] gnd _456_ _454_ NAND2X1
XINVX1_39 _29_[2] _464_ vdd gnd INVX1
XNAND2X1_46 vdd _465_ gnd i_add_term2[38] i_add_term1[38] NAND2X1
XNOR2X1_48 vdd i_add_term1[38] gnd _466_ i_add_term2[38] NOR2X1
XOAI21X1_43 gnd vdd _464_ _466_ _29_[3] _465_ OAI21X1
XOR2X2_20 _460_ i_add_term1[38] vdd gnd i_add_term2[38] OR2X2
XNAND3X1_20 _465_ vdd gnd _464_ _460_ _461_ NAND3X1
XAND2X2_24 vdd gnd i_add_term2[38] i_add_term1[38] _462_ AND2X2
XOAI21X1_44 gnd vdd _466_ _462_ _463_ _29_[2] OAI21X1
XNAND2X1_47 vdd _0_[38] gnd _463_ _461_ NAND2X1
XINVX1_40 i_add_term1[36] _467_ vdd gnd INVX1
XNOR2X1_49 vdd _467_ gnd _468_ i_add_term2[36] NOR2X1
XINVX1_41 i_add_term2[36] _469_ vdd gnd INVX1
XNOR2X1_50 vdd _469_ gnd _470_ i_add_term1[36] NOR2X1
XINVX1_42 i_add_term1[37] _471_ vdd gnd INVX1
XNOR2X1_51 vdd _471_ gnd _472_ i_add_term2[37] NOR2X1
XINVX1_43 i_add_term2[37] _473_ vdd gnd INVX1
XNOR2X1_52 vdd _473_ gnd _474_ i_add_term1[37] NOR2X1
XOAI22X1_5 gnd vdd _474_ _472_ _468_ _470_ _475_ OAI22X1
XNOR2X1_53 vdd i_add_term1[39] gnd _476_ i_add_term2[39] NOR2X1
XAND2X2_25 vdd gnd i_add_term2[39] i_add_term1[39] _477_ AND2X2
XNOR2X1_54 vdd _477_ gnd _478_ _476_ NOR2X1
XXOR2X1_5 _479_ vdd i_add_term1[38] i_add_term2[38] gnd XOR2X1
XNAND2X1_48 vdd _480_ gnd _478_ _479_ NAND2X1
XNOR2X1_55 vdd _480_ gnd _30_ _475_ NOR2X1
XINVX1_44 _28_ _481_ vdd gnd INVX1
XNAND2X1_49 vdd _482_ gnd gnd _30_ NAND2X1
XOAI21X1_45 gnd vdd _30_ _481_ w_cout[10] _482_ OAI21X1
XINVX1_45 w_cout[10] _487_ vdd gnd INVX1
XNAND2X1_50 vdd _488_ gnd i_add_term2[40] i_add_term1[40] NAND2X1
XNOR2X1_56 vdd i_add_term1[40] gnd _489_ i_add_term2[40] NOR2X1
XOAI21X1_46 gnd vdd _487_ _489_ _32_[1] _488_ OAI21X1
XOR2X2_21 _483_ i_add_term1[40] vdd gnd i_add_term2[40] OR2X2
XNAND3X1_21 _488_ vdd gnd _487_ _483_ _484_ NAND3X1
XAND2X2_26 vdd gnd i_add_term2[40] i_add_term1[40] _485_ AND2X2
XOAI21X1_47 gnd vdd _489_ _485_ _486_ w_cout[10] OAI21X1
XNAND2X1_51 vdd _0_[40] gnd _486_ _484_ NAND2X1
XINVX1_46 _32_[3] _494_ vdd gnd INVX1
XNAND2X1_52 vdd _495_ gnd i_add_term2[43] i_add_term1[43] NAND2X1
XNOR2X1_57 vdd i_add_term1[43] gnd _496_ i_add_term2[43] NOR2X1
XOAI21X1_48 gnd vdd _494_ _496_ _31_ _495_ OAI21X1
XOR2X2_22 _490_ i_add_term1[43] vdd gnd i_add_term2[43] OR2X2
XNAND3X1_22 _495_ vdd gnd _494_ _490_ _491_ NAND3X1
XAND2X2_27 vdd gnd i_add_term2[43] i_add_term1[43] _492_ AND2X2
XOAI21X1_49 gnd vdd _496_ _492_ _493_ _32_[3] OAI21X1
XNAND2X1_53 vdd _0_[43] gnd _493_ _491_ NAND2X1
XINVX1_47 _32_[1] _501_ vdd gnd INVX1
XNAND2X1_54 vdd _502_ gnd i_add_term2[41] i_add_term1[41] NAND2X1
XNOR2X1_58 vdd i_add_term1[41] gnd _503_ i_add_term2[41] NOR2X1
XOAI21X1_50 gnd vdd _501_ _503_ _32_[2] _502_ OAI21X1
XOR2X2_23 _497_ i_add_term1[41] vdd gnd i_add_term2[41] OR2X2
XNAND3X1_23 _502_ vdd gnd _501_ _497_ _498_ NAND3X1
XAND2X2_28 vdd gnd i_add_term2[41] i_add_term1[41] _499_ AND2X2
XOAI21X1_51 gnd vdd _503_ _499_ _500_ _32_[1] OAI21X1
XNAND2X1_55 vdd _0_[41] gnd _500_ _498_ NAND2X1
XINVX1_48 _32_[2] _508_ vdd gnd INVX1
XNAND2X1_56 vdd _509_ gnd i_add_term2[42] i_add_term1[42] NAND2X1
XNOR2X1_59 vdd i_add_term1[42] gnd _510_ i_add_term2[42] NOR2X1
XOAI21X1_52 gnd vdd _508_ _510_ _32_[3] _509_ OAI21X1
XOR2X2_24 _504_ i_add_term1[42] vdd gnd i_add_term2[42] OR2X2
XNAND3X1_24 _509_ vdd gnd _508_ _504_ _505_ NAND3X1
XAND2X2_29 vdd gnd i_add_term2[42] i_add_term1[42] _506_ AND2X2
XOAI21X1_53 gnd vdd _510_ _506_ _507_ _32_[2] OAI21X1
XNAND2X1_57 vdd _0_[42] gnd _507_ _505_ NAND2X1
XINVX1_49 i_add_term1[40] _511_ vdd gnd INVX1
XNOR2X1_60 vdd _511_ gnd _512_ i_add_term2[40] NOR2X1
XINVX1_50 i_add_term2[40] _513_ vdd gnd INVX1
XNOR2X1_61 vdd _513_ gnd _514_ i_add_term1[40] NOR2X1
XINVX1_51 i_add_term1[41] _515_ vdd gnd INVX1
XNOR2X1_62 vdd _515_ gnd _516_ i_add_term2[41] NOR2X1
XINVX1_52 i_add_term2[41] _517_ vdd gnd INVX1
XNOR2X1_63 vdd _517_ gnd _518_ i_add_term1[41] NOR2X1
XOAI22X1_6 gnd vdd _518_ _516_ _512_ _514_ _519_ OAI22X1
XNOR2X1_64 vdd i_add_term1[43] gnd _520_ i_add_term2[43] NOR2X1
XAND2X2_30 vdd gnd i_add_term2[43] i_add_term1[43] _521_ AND2X2
XNOR2X1_65 vdd _521_ gnd _522_ _520_ NOR2X1
XXOR2X1_6 _523_ vdd i_add_term1[42] i_add_term2[42] gnd XOR2X1
XNAND2X1_58 vdd _524_ gnd _522_ _523_ NAND2X1
XNOR2X1_66 vdd _524_ gnd _33_ _519_ NOR2X1
XINVX1_53 _31_ _525_ vdd gnd INVX1
XNAND2X1_59 vdd _526_ gnd gnd _33_ NAND2X1
XOAI21X1_54 gnd vdd _33_ _525_ w_cout[11] _526_ OAI21X1
XINVX1_54 w_cout[11] _531_ vdd gnd INVX1
XNAND2X1_60 vdd _532_ gnd i_add_term2[44] i_add_term1[44] NAND2X1
XNOR2X1_67 vdd i_add_term1[44] gnd _533_ i_add_term2[44] NOR2X1
XOAI21X1_55 gnd vdd _531_ _533_ _35_[1] _532_ OAI21X1
XOR2X2_25 _527_ i_add_term1[44] vdd gnd i_add_term2[44] OR2X2
XNAND3X1_25 _532_ vdd gnd _531_ _527_ _528_ NAND3X1
XAND2X2_31 vdd gnd i_add_term2[44] i_add_term1[44] _529_ AND2X2
XOAI21X1_56 gnd vdd _533_ _529_ _530_ w_cout[11] OAI21X1
XNAND2X1_61 vdd _0_[44] gnd _530_ _528_ NAND2X1
XINVX1_55 _35_[3] _538_ vdd gnd INVX1
XNAND2X1_62 vdd _539_ gnd i_add_term2[47] i_add_term1[47] NAND2X1
XNOR2X1_68 vdd i_add_term1[47] gnd _540_ i_add_term2[47] NOR2X1
XOAI21X1_57 gnd vdd _538_ _540_ _34_ _539_ OAI21X1
XOR2X2_26 _534_ i_add_term1[47] vdd gnd i_add_term2[47] OR2X2
XNAND3X1_26 _539_ vdd gnd _538_ _534_ _535_ NAND3X1
XAND2X2_32 vdd gnd i_add_term2[47] i_add_term1[47] _536_ AND2X2
XOAI21X1_58 gnd vdd _540_ _536_ _537_ _35_[3] OAI21X1
XNAND2X1_63 vdd _0_[47] gnd _537_ _535_ NAND2X1
XINVX1_56 _35_[1] _545_ vdd gnd INVX1
XNAND2X1_64 vdd _546_ gnd i_add_term2[45] i_add_term1[45] NAND2X1
XNOR2X1_69 vdd i_add_term1[45] gnd _547_ i_add_term2[45] NOR2X1
XOAI21X1_59 gnd vdd _545_ _547_ _35_[2] _546_ OAI21X1
XOR2X2_27 _541_ i_add_term1[45] vdd gnd i_add_term2[45] OR2X2
XNAND3X1_27 _546_ vdd gnd _545_ _541_ _542_ NAND3X1
XAND2X2_33 vdd gnd i_add_term2[45] i_add_term1[45] _543_ AND2X2
XOAI21X1_60 gnd vdd _547_ _543_ _544_ _35_[1] OAI21X1
XNAND2X1_65 vdd _0_[45] gnd _544_ _542_ NAND2X1
XINVX1_57 _35_[2] _552_ vdd gnd INVX1
XNAND2X1_66 vdd _553_ gnd i_add_term2[46] i_add_term1[46] NAND2X1
XNOR2X1_70 vdd i_add_term1[46] gnd _554_ i_add_term2[46] NOR2X1
XOAI21X1_61 gnd vdd _552_ _554_ _35_[3] _553_ OAI21X1
XOR2X2_28 _548_ i_add_term1[46] vdd gnd i_add_term2[46] OR2X2
XNAND3X1_28 _553_ vdd gnd _552_ _548_ _549_ NAND3X1
XAND2X2_34 vdd gnd i_add_term2[46] i_add_term1[46] _550_ AND2X2
XOAI21X1_62 gnd vdd _554_ _550_ _551_ _35_[2] OAI21X1
XNAND2X1_67 vdd _0_[46] gnd _551_ _549_ NAND2X1
XINVX1_58 i_add_term1[44] _555_ vdd gnd INVX1
XNOR2X1_71 vdd _555_ gnd _556_ i_add_term2[44] NOR2X1
XINVX1_59 i_add_term2[44] _557_ vdd gnd INVX1
XNOR2X1_72 vdd _557_ gnd _558_ i_add_term1[44] NOR2X1
XINVX1_60 i_add_term1[45] _559_ vdd gnd INVX1
XNOR2X1_73 vdd _559_ gnd _560_ i_add_term2[45] NOR2X1
XINVX1_61 i_add_term2[45] _561_ vdd gnd INVX1
XNOR2X1_74 vdd _561_ gnd _562_ i_add_term1[45] NOR2X1
XOAI22X1_7 gnd vdd _562_ _560_ _556_ _558_ _563_ OAI22X1
XNOR2X1_75 vdd i_add_term1[47] gnd _564_ i_add_term2[47] NOR2X1
XAND2X2_35 vdd gnd i_add_term2[47] i_add_term1[47] _565_ AND2X2
XNOR2X1_76 vdd _565_ gnd _566_ _564_ NOR2X1
XXOR2X1_7 _567_ vdd i_add_term1[46] i_add_term2[46] gnd XOR2X1
XNAND2X1_68 vdd _568_ gnd _566_ _567_ NAND2X1
XNOR2X1_77 vdd _568_ gnd _36_ _563_ NOR2X1
XINVX1_62 _34_ _569_ vdd gnd INVX1
XNAND2X1_69 vdd _570_ gnd gnd _36_ NAND2X1
XOAI21X1_63 gnd vdd _36_ _569_ w_cout[12] _570_ OAI21X1
XINVX1_63 w_cout[12] _575_ vdd gnd INVX1
XNAND2X1_70 vdd _576_ gnd i_add_term2[48] i_add_term1[48] NAND2X1
XNOR2X1_78 vdd i_add_term1[48] gnd _577_ i_add_term2[48] NOR2X1
XOAI21X1_64 gnd vdd _575_ _577_ _38_[1] _576_ OAI21X1
XOR2X2_29 _571_ i_add_term1[48] vdd gnd i_add_term2[48] OR2X2
XNAND3X1_29 _576_ vdd gnd _575_ _571_ _572_ NAND3X1
XAND2X2_36 vdd gnd i_add_term2[48] i_add_term1[48] _573_ AND2X2
XOAI21X1_65 gnd vdd _577_ _573_ _574_ w_cout[12] OAI21X1
XNAND2X1_71 vdd _0_[48] gnd _574_ _572_ NAND2X1
XINVX1_64 _38_[3] _582_ vdd gnd INVX1
XNAND2X1_72 vdd _583_ gnd i_add_term2[51] i_add_term1[51] NAND2X1
XNOR2X1_79 vdd i_add_term1[51] gnd _584_ i_add_term2[51] NOR2X1
XOAI21X1_66 gnd vdd _582_ _584_ _37_ _583_ OAI21X1
XOR2X2_30 _578_ i_add_term1[51] vdd gnd i_add_term2[51] OR2X2
XNAND3X1_30 _583_ vdd gnd _582_ _578_ _579_ NAND3X1
XAND2X2_37 vdd gnd i_add_term2[51] i_add_term1[51] _580_ AND2X2
XOAI21X1_67 gnd vdd _584_ _580_ _581_ _38_[3] OAI21X1
XNAND2X1_73 vdd _0_[51] gnd _581_ _579_ NAND2X1
XINVX1_65 _38_[1] _589_ vdd gnd INVX1
XNAND2X1_74 vdd _590_ gnd i_add_term2[49] i_add_term1[49] NAND2X1
XNOR2X1_80 vdd i_add_term1[49] gnd _591_ i_add_term2[49] NOR2X1
XOAI21X1_68 gnd vdd _589_ _591_ _38_[2] _590_ OAI21X1
XOR2X2_31 _585_ i_add_term1[49] vdd gnd i_add_term2[49] OR2X2
XNAND3X1_31 _590_ vdd gnd _589_ _585_ _586_ NAND3X1
XAND2X2_38 vdd gnd i_add_term2[49] i_add_term1[49] _587_ AND2X2
XOAI21X1_69 gnd vdd _591_ _587_ _588_ _38_[1] OAI21X1
XNAND2X1_75 vdd _0_[49] gnd _588_ _586_ NAND2X1
XINVX1_66 _38_[2] _596_ vdd gnd INVX1
XNAND2X1_76 vdd _597_ gnd i_add_term2[50] i_add_term1[50] NAND2X1
XNOR2X1_81 vdd i_add_term1[50] gnd _598_ i_add_term2[50] NOR2X1
XOAI21X1_70 gnd vdd _596_ _598_ _38_[3] _597_ OAI21X1
XOR2X2_32 _592_ i_add_term1[50] vdd gnd i_add_term2[50] OR2X2
XNAND3X1_32 _597_ vdd gnd _596_ _592_ _593_ NAND3X1
XAND2X2_39 vdd gnd i_add_term2[50] i_add_term1[50] _594_ AND2X2
XOAI21X1_71 gnd vdd _598_ _594_ _595_ _38_[2] OAI21X1
XNAND2X1_77 vdd _0_[50] gnd _595_ _593_ NAND2X1
XINVX1_67 i_add_term1[48] _599_ vdd gnd INVX1
XNOR2X1_82 vdd _599_ gnd _600_ i_add_term2[48] NOR2X1
XINVX1_68 i_add_term2[48] _601_ vdd gnd INVX1
XNOR2X1_83 vdd _601_ gnd _602_ i_add_term1[48] NOR2X1
XINVX1_69 i_add_term1[49] _603_ vdd gnd INVX1
XNOR2X1_84 vdd _603_ gnd _604_ i_add_term2[49] NOR2X1
XINVX1_70 i_add_term2[49] _605_ vdd gnd INVX1
XNOR2X1_85 vdd _605_ gnd _606_ i_add_term1[49] NOR2X1
XOAI22X1_8 gnd vdd _606_ _604_ _600_ _602_ _607_ OAI22X1
XNOR2X1_86 vdd i_add_term1[51] gnd _608_ i_add_term2[51] NOR2X1
XAND2X2_40 vdd gnd i_add_term2[51] i_add_term1[51] _609_ AND2X2
XNOR2X1_87 vdd _609_ gnd _610_ _608_ NOR2X1
XXOR2X1_8 _611_ vdd i_add_term1[50] i_add_term2[50] gnd XOR2X1
XNAND2X1_78 vdd _612_ gnd _610_ _611_ NAND2X1
XNOR2X1_88 vdd _612_ gnd _39_ _607_ NOR2X1
XINVX1_71 _37_ _613_ vdd gnd INVX1
XNAND2X1_79 vdd _614_ gnd gnd _39_ NAND2X1
XOAI21X1_72 gnd vdd _39_ _613_ w_cout[13] _614_ OAI21X1
XINVX1_72 w_cout[13] _619_ vdd gnd INVX1
XNAND2X1_80 vdd _620_ gnd i_add_term2[52] i_add_term1[52] NAND2X1
XNOR2X1_89 vdd i_add_term1[52] gnd _621_ i_add_term2[52] NOR2X1
XOAI21X1_73 gnd vdd _619_ _621_ _41_[1] _620_ OAI21X1
XOR2X2_33 _615_ i_add_term1[52] vdd gnd i_add_term2[52] OR2X2
XNAND3X1_33 _620_ vdd gnd _619_ _615_ _616_ NAND3X1
XAND2X2_41 vdd gnd i_add_term2[52] i_add_term1[52] _617_ AND2X2
XOAI21X1_74 gnd vdd _621_ _617_ _618_ w_cout[13] OAI21X1
XNAND2X1_81 vdd _0_[52] gnd _618_ _616_ NAND2X1
XINVX1_73 _41_[3] _626_ vdd gnd INVX1
XNAND2X1_82 vdd _627_ gnd i_add_term2[55] i_add_term1[55] NAND2X1
XNOR2X1_90 vdd i_add_term1[55] gnd _628_ i_add_term2[55] NOR2X1
XOAI21X1_75 gnd vdd _626_ _628_ _40_ _627_ OAI21X1
XOR2X2_34 _622_ i_add_term1[55] vdd gnd i_add_term2[55] OR2X2
XNAND3X1_34 _627_ vdd gnd _626_ _622_ _623_ NAND3X1
XAND2X2_42 vdd gnd i_add_term2[55] i_add_term1[55] _624_ AND2X2
XOAI21X1_76 gnd vdd _628_ _624_ _625_ _41_[3] OAI21X1
XNAND2X1_83 vdd _0_[55] gnd _625_ _623_ NAND2X1
XINVX1_74 _41_[1] _633_ vdd gnd INVX1
XNAND2X1_84 vdd _634_ gnd i_add_term2[53] i_add_term1[53] NAND2X1
XNOR2X1_91 vdd i_add_term1[53] gnd _635_ i_add_term2[53] NOR2X1
XOAI21X1_77 gnd vdd _633_ _635_ _41_[2] _634_ OAI21X1
XOR2X2_35 _629_ i_add_term1[53] vdd gnd i_add_term2[53] OR2X2
XNAND3X1_35 _634_ vdd gnd _633_ _629_ _630_ NAND3X1
XAND2X2_43 vdd gnd i_add_term2[53] i_add_term1[53] _631_ AND2X2
XOAI21X1_78 gnd vdd _635_ _631_ _632_ _41_[1] OAI21X1
XNAND2X1_85 vdd _0_[53] gnd _632_ _630_ NAND2X1
XINVX1_75 _41_[2] _640_ vdd gnd INVX1
XNAND2X1_86 vdd _641_ gnd i_add_term2[54] i_add_term1[54] NAND2X1
XNOR2X1_92 vdd i_add_term1[54] gnd _642_ i_add_term2[54] NOR2X1
XOAI21X1_79 gnd vdd _640_ _642_ _41_[3] _641_ OAI21X1
XOR2X2_36 _636_ i_add_term1[54] vdd gnd i_add_term2[54] OR2X2
XNAND3X1_36 _641_ vdd gnd _640_ _636_ _637_ NAND3X1
XAND2X2_44 vdd gnd i_add_term2[54] i_add_term1[54] _638_ AND2X2
XOAI21X1_80 gnd vdd _642_ _638_ _639_ _41_[2] OAI21X1
XNAND2X1_87 vdd _0_[54] gnd _639_ _637_ NAND2X1
XINVX1_76 i_add_term1[52] _643_ vdd gnd INVX1
XNOR2X1_93 vdd _643_ gnd _644_ i_add_term2[52] NOR2X1
XINVX1_77 i_add_term2[52] _645_ vdd gnd INVX1
XNOR2X1_94 vdd _645_ gnd _646_ i_add_term1[52] NOR2X1
XINVX1_78 i_add_term1[53] _647_ vdd gnd INVX1
XNOR2X1_95 vdd _647_ gnd _648_ i_add_term2[53] NOR2X1
XINVX1_79 i_add_term2[53] _649_ vdd gnd INVX1
XNOR2X1_96 vdd _649_ gnd _650_ i_add_term1[53] NOR2X1
XOAI22X1_9 gnd vdd _650_ _648_ _644_ _646_ _651_ OAI22X1
XNOR2X1_97 vdd i_add_term1[55] gnd _652_ i_add_term2[55] NOR2X1
XAND2X2_45 vdd gnd i_add_term2[55] i_add_term1[55] _653_ AND2X2
XNOR2X1_98 vdd _653_ gnd _654_ _652_ NOR2X1
XXOR2X1_9 _655_ vdd i_add_term1[54] i_add_term2[54] gnd XOR2X1
XNAND2X1_88 vdd _656_ gnd _654_ _655_ NAND2X1
XNOR2X1_99 vdd _656_ gnd _42_ _651_ NOR2X1
XINVX1_80 _40_ _657_ vdd gnd INVX1
XNAND2X1_89 vdd _658_ gnd gnd _42_ NAND2X1
XOAI21X1_81 gnd vdd _42_ _657_ cskip1_inst.cin _658_ OAI21X1
XINVX1_81 cskip1_inst.cin _663_ vdd gnd INVX1
XNAND2X1_90 vdd _664_ gnd i_add_term2[56] i_add_term1[56] NAND2X1
XNOR2X1_100 vdd i_add_term1[56] gnd _665_ i_add_term2[56] NOR2X1
XOAI21X1_82 gnd vdd _663_ _665_ cskip1_inst.cout0 _664_ OAI21X1
XOR2X2_37 _659_ i_add_term1[56] vdd gnd i_add_term2[56] OR2X2
XNAND3X1_37 _664_ vdd gnd _663_ _659_ _660_ NAND3X1
XAND2X2_46 vdd gnd i_add_term2[56] i_add_term1[56] _661_ AND2X2
XOAI21X1_83 gnd vdd _665_ _661_ _662_ cskip1_inst.cin OAI21X1
XNAND2X1_91 vdd cskip1_inst.rca0.fa0.o_sum gnd _662_ _660_ NAND2X1
XNOR2X1_101 vdd i_add_term1[56] gnd _666_ i_add_term2[56] NOR2X1
XAND2X2_47 vdd gnd i_add_term2[56] i_add_term1[56] _667_ AND2X2
XNOR2X1_102 vdd _667_ gnd cskip1_inst.skip0.P _666_ NOR2X1
XINVX1_82 cskip1_inst.cout0 _668_ vdd gnd INVX1
XNAND2X1_92 vdd _669_ gnd gnd cskip1_inst.skip0.P NAND2X1
XOAI21X1_84 gnd vdd cskip1_inst.skip0.P _668_ w_cout[15] _669_ OAI21X1
XBUFX2_1 vdd gnd w_cout[15] cout BUFX2
XBUFX2_2 vdd gnd _0_[0] sum[0] BUFX2
XBUFX2_3 vdd gnd _0_[1] sum[1] BUFX2
XBUFX2_4 vdd gnd _0_[2] sum[2] BUFX2
XBUFX2_5 vdd gnd _0_[3] sum[3] BUFX2
XBUFX2_6 vdd gnd _0_[4] sum[4] BUFX2
XBUFX2_7 vdd gnd _0_[5] sum[5] BUFX2
XBUFX2_8 vdd gnd _0_[6] sum[6] BUFX2
XBUFX2_9 vdd gnd _0_[7] sum[7] BUFX2
XBUFX2_10 vdd gnd _0_[8] sum[8] BUFX2
XBUFX2_11 vdd gnd _0_[9] sum[9] BUFX2
XBUFX2_12 vdd gnd _0_[10] sum[10] BUFX2
XBUFX2_13 vdd gnd _0_[11] sum[11] BUFX2