* XSpice netlist created from SPICE and liberty sources by spi2xspice.py
*SPICE netlist created from BLIF module CSkipA_53bit by blif2BSpice
.subckt CSkipA_53bit a_vdd a_gnd a_i_add_term1_0_ a_i_add_term1_1_ a_i_add_term1_2_ a_i_add_term1_3_ a_i_add_term1_4_ a_i_add_term1_5_ a_i_add_term1_6_ a_i_add_term1_7_ a_i_add_term1_8_ a_i_add_term1_9_ a_i_add_term1_10_ a_i_add_term1_11_ a_i_add_term1_12_ a_i_add_term1_13_ a_i_add_term1_14_ a_i_add_term1_15_ a_i_add_term1_16_ a_i_add_term1_17_ a_i_add_term1_18_ a_i_add_term1_19_ a_i_add_term1_20_ a_i_add_term1_21_ a_i_add_term1_22_ a_i_add_term1_23_ a_i_add_term1_24_ a_i_add_term1_25_ a_i_add_term1_26_ a_i_add_term1_27_ a_i_add_term1_28_ a_i_add_term1_29_ a_i_add_term1_30_ a_i_add_term1_31_ a_i_add_term1_32_ a_i_add_term1_33_ a_i_add_term1_34_ a_i_add_term1_35_ a_i_add_term1_36_ a_i_add_term1_37_ a_i_add_term1_38_ a_i_add_term1_39_ a_i_add_term1_40_ a_i_add_term1_41_ a_i_add_term1_42_ a_i_add_term1_43_ a_i_add_term1_44_ a_i_add_term1_45_ a_i_add_term1_46_ a_i_add_term1_47_ a_i_add_term1_48_ a_i_add_term1_49_ a_i_add_term1_50_ a_i_add_term1_51_ a_i_add_term1_52_ a_i_add_term2_0_ a_i_add_term2_1_ a_i_add_term2_2_ a_i_add_term2_3_ a_i_add_term2_4_ a_i_add_term2_5_ a_i_add_term2_6_ a_i_add_term2_7_ a_i_add_term2_8_ a_i_add_term2_9_ a_i_add_term2_10_ a_i_add_term2_11_ a_i_add_term2_12_ a_i_add_term2_13_ a_i_add_term2_14_ a_i_add_term2_15_ a_i_add_term2_16_ a_i_add_term2_17_ a_i_add_term2_18_ a_i_add_term2_19_ a_i_add_term2_20_ a_i_add_term2_21_ a_i_add_term2_22_ a_i_add_term2_23_ a_i_add_term2_24_ a_i_add_term2_25_ a_i_add_term2_26_ a_i_add_term2_27_ a_i_add_term2_28_ a_i_add_term2_29_ a_i_add_term2_30_ a_i_add_term2_31_ a_i_add_term2_32_ a_i_add_term2_33_ a_i_add_term2_34_ a_i_add_term2_35_ a_i_add_term2_36_ a_i_add_term2_37_ a_i_add_term2_38_ a_i_add_term2_39_ a_i_add_term2_40_ a_i_add_term2_41_ a_i_add_term2_42_ a_i_add_term2_43_ a_i_add_term2_44_ a_i_add_term2_45_ a_i_add_term2_46_ a_i_add_term2_47_ a_i_add_term2_48_ a_i_add_term2_49_ a_i_add_term2_50_ a_i_add_term2_51_ a_i_add_term2_52_ a_sum_0_ a_sum_1_ a_sum_2_ a_sum_3_ a_sum_4_ a_sum_5_ a_sum_6_ a_sum_7_ a_sum_8_ a_sum_9_ a_sum_10_ a_sum_11_ a_sum_12_ a_sum_13_ a_sum_14_ a_sum_15_ a_sum_16_ a_sum_17_ a_sum_18_ a_sum_19_ a_sum_20_ a_sum_21_ a_sum_22_ a_sum_23_ a_sum_24_ a_sum_25_ a_sum_26_ a_sum_27_ a_sum_28_ a_sum_29_ a_sum_30_ a_sum_31_ a_sum_32_ a_sum_33_ a_sum_34_ a_sum_35_ a_sum_36_ a_sum_37_ a_sum_38_ a_sum_39_ a_sum_40_ a_sum_41_ a_sum_42_ a_sum_43_ a_sum_44_ a_sum_45_ a_sum_46_ a_sum_47_ a_sum_48_ a_sum_49_ a_sum_50_ a_sum_51_ a_sum_52_ a_cout
AOAI21X1_1 [_18_ _302_ _303_] w_cout_6_ d_lut_OAI21X1
AINVX1_1 [w_cout_6_] _307_ d_lut_INVX1
AOR2X2_1 [i_add_term2_24_ i_add_term1_24_] _308_ d_lut_OR2X2
ANAND2X1_1 [i_add_term2_24_ i_add_term1_24_] _309_ d_lut_NAND2X1
ANAND3X1_1 [_307_ _309_ _308_] _310_ d_lut_NAND3X1
ANOR2X1_1 [i_add_term2_24_ i_add_term1_24_] _304_ d_lut_NOR2X1
AAND2X2_1 [i_add_term2_24_ i_add_term1_24_] _305_ d_lut_AND2X2
AOAI21X1_2 [_304_ _305_ w_cout_6_] _306_ d_lut_OAI21X1
ANAND2X1_2 [_306_ _310_] _0__24_ d_lut_NAND2X1
AOAI21X1_3 [_307_ _304_ _309_] _20__1_ d_lut_OAI21X1
AINVX1_2 [_20__3_] _314_ d_lut_INVX1
AOR2X2_2 [i_add_term2_27_ i_add_term1_27_] _315_ d_lut_OR2X2
ANAND2X1_3 [i_add_term2_27_ i_add_term1_27_] _316_ d_lut_NAND2X1
ANAND3X1_2 [_314_ _316_ _315_] _317_ d_lut_NAND3X1
ANOR2X1_2 [i_add_term2_27_ i_add_term1_27_] _311_ d_lut_NOR2X1
AAND2X2_2 [i_add_term2_27_ i_add_term1_27_] _312_ d_lut_AND2X2
AOAI21X1_4 [_311_ _312_ _20__3_] _313_ d_lut_OAI21X1
ANAND2X1_4 [_313_ _317_] _0__27_ d_lut_NAND2X1
AOAI21X1_5 [_314_ _311_ _316_] _19_ d_lut_OAI21X1
AINVX1_3 [_20__1_] _321_ d_lut_INVX1
AOR2X2_3 [i_add_term2_25_ i_add_term1_25_] _322_ d_lut_OR2X2
ANAND2X1_5 [i_add_term2_25_ i_add_term1_25_] _323_ d_lut_NAND2X1
ANAND3X1_3 [_321_ _323_ _322_] _324_ d_lut_NAND3X1
ANOR2X1_3 [i_add_term2_25_ i_add_term1_25_] _318_ d_lut_NOR2X1
AAND2X2_3 [i_add_term2_25_ i_add_term1_25_] _319_ d_lut_AND2X2
AOAI21X1_6 [_318_ _319_ _20__1_] _320_ d_lut_OAI21X1
ANAND2X1_6 [_320_ _324_] _0__25_ d_lut_NAND2X1
AOAI21X1_7 [_321_ _318_ _323_] _20__2_ d_lut_OAI21X1
AINVX1_4 [_20__2_] _328_ d_lut_INVX1
AOR2X2_4 [i_add_term2_26_ i_add_term1_26_] _329_ d_lut_OR2X2
ANAND2X1_7 [i_add_term2_26_ i_add_term1_26_] _330_ d_lut_NAND2X1
ANAND3X1_4 [_328_ _330_ _329_] _331_ d_lut_NAND3X1
ANOR2X1_4 [i_add_term2_26_ i_add_term1_26_] _325_ d_lut_NOR2X1
AAND2X2_4 [i_add_term2_26_ i_add_term1_26_] _326_ d_lut_AND2X2
AOAI21X1_8 [_325_ _326_ _20__2_] _327_ d_lut_OAI21X1
ANAND2X1_8 [_327_ _331_] _0__26_ d_lut_NAND2X1
AOAI21X1_9 [_328_ _325_ _330_] _20__3_ d_lut_OAI21X1
AINVX1_5 [i_add_term1_24_] _332_ d_lut_INVX1
ANOR2X1_5 [i_add_term2_24_ _332_] _333_ d_lut_NOR2X1
AINVX1_6 [i_add_term2_24_] _334_ d_lut_INVX1
ANOR2X1_6 [i_add_term1_24_ _334_] _335_ d_lut_NOR2X1
AINVX1_7 [i_add_term1_25_] _336_ d_lut_INVX1
ANOR2X1_7 [i_add_term2_25_ _336_] _337_ d_lut_NOR2X1
AINVX1_8 [i_add_term2_25_] _338_ d_lut_INVX1
ANOR2X1_8 [i_add_term1_25_ _338_] _339_ d_lut_NOR2X1
AOAI22X1_1 [_333_ _335_ _337_ _339_] _340_ d_lut_OAI22X1
ANOR2X1_9 [i_add_term2_27_ i_add_term1_27_] _341_ d_lut_NOR2X1
AAND2X2_5 [i_add_term2_27_ i_add_term1_27_] _342_ d_lut_AND2X2
ANOR2X1_10 [_341_ _342_] _343_ d_lut_NOR2X1
AXOR2X1_1 [i_add_term2_26_ i_add_term1_26_] _344_ d_lut_XOR2X1
ANAND2X1_9 [_343_ _344_] _345_ d_lut_NAND2X1
ANOR2X1_11 [_340_ _345_] _21_ d_lut_NOR2X1
AINVX1_9 [_19_] _346_ d_lut_INVX1
ANAND2X1_10 [gnd _21_] _347_ d_lut_NAND2X1
AOAI21X1_10 [_21_ _346_ _347_] w_cout_7_ d_lut_OAI21X1
AINVX1_10 [w_cout_7_] _351_ d_lut_INVX1
AOR2X2_5 [i_add_term2_28_ i_add_term1_28_] _352_ d_lut_OR2X2
ANAND2X1_11 [i_add_term2_28_ i_add_term1_28_] _353_ d_lut_NAND2X1
ANAND3X1_5 [_351_ _353_ _352_] _354_ d_lut_NAND3X1
ANOR2X1_12 [i_add_term2_28_ i_add_term1_28_] _348_ d_lut_NOR2X1
AAND2X2_6 [i_add_term2_28_ i_add_term1_28_] _349_ d_lut_AND2X2
AOAI21X1_11 [_348_ _349_ w_cout_7_] _350_ d_lut_OAI21X1
ANAND2X1_12 [_350_ _354_] _0__28_ d_lut_NAND2X1
AOAI21X1_12 [_351_ _348_ _353_] _23__1_ d_lut_OAI21X1
AINVX1_11 [_23__3_] _358_ d_lut_INVX1
AOR2X2_6 [i_add_term2_31_ i_add_term1_31_] _359_ d_lut_OR2X2
ANAND2X1_13 [i_add_term2_31_ i_add_term1_31_] _360_ d_lut_NAND2X1
ANAND3X1_6 [_358_ _360_ _359_] _361_ d_lut_NAND3X1
ANOR2X1_13 [i_add_term2_31_ i_add_term1_31_] _355_ d_lut_NOR2X1
AAND2X2_7 [i_add_term2_31_ i_add_term1_31_] _356_ d_lut_AND2X2
AOAI21X1_13 [_355_ _356_ _23__3_] _357_ d_lut_OAI21X1
ANAND2X1_14 [_357_ _361_] _0__31_ d_lut_NAND2X1
AOAI21X1_14 [_358_ _355_ _360_] _22_ d_lut_OAI21X1
AINVX1_12 [_23__1_] _365_ d_lut_INVX1
AOR2X2_7 [i_add_term2_29_ i_add_term1_29_] _366_ d_lut_OR2X2
ANAND2X1_15 [i_add_term2_29_ i_add_term1_29_] _367_ d_lut_NAND2X1
ANAND3X1_7 [_365_ _367_ _366_] _368_ d_lut_NAND3X1
ANOR2X1_14 [i_add_term2_29_ i_add_term1_29_] _362_ d_lut_NOR2X1
AAND2X2_8 [i_add_term2_29_ i_add_term1_29_] _363_ d_lut_AND2X2
AOAI21X1_15 [_362_ _363_ _23__1_] _364_ d_lut_OAI21X1
ANAND2X1_16 [_364_ _368_] _0__29_ d_lut_NAND2X1
AOAI21X1_16 [_365_ _362_ _367_] _23__2_ d_lut_OAI21X1
AINVX1_13 [_23__2_] _372_ d_lut_INVX1
AOR2X2_8 [i_add_term2_30_ i_add_term1_30_] _373_ d_lut_OR2X2
ANAND2X1_17 [i_add_term2_30_ i_add_term1_30_] _374_ d_lut_NAND2X1
ANAND3X1_8 [_372_ _374_ _373_] _375_ d_lut_NAND3X1
ANOR2X1_15 [i_add_term2_30_ i_add_term1_30_] _369_ d_lut_NOR2X1
AAND2X2_9 [i_add_term2_30_ i_add_term1_30_] _370_ d_lut_AND2X2
AOAI21X1_17 [_369_ _370_ _23__2_] _371_ d_lut_OAI21X1
ANAND2X1_18 [_371_ _375_] _0__30_ d_lut_NAND2X1
AOAI21X1_18 [_372_ _369_ _374_] _23__3_ d_lut_OAI21X1
AINVX1_14 [i_add_term1_28_] _376_ d_lut_INVX1
ANOR2X1_16 [i_add_term2_28_ _376_] _377_ d_lut_NOR2X1
AINVX1_15 [i_add_term2_28_] _378_ d_lut_INVX1
ANOR2X1_17 [i_add_term1_28_ _378_] _379_ d_lut_NOR2X1
AINVX1_16 [i_add_term1_29_] _380_ d_lut_INVX1
ANOR2X1_18 [i_add_term2_29_ _380_] _381_ d_lut_NOR2X1
AINVX1_17 [i_add_term2_29_] _382_ d_lut_INVX1
ANOR2X1_19 [i_add_term1_29_ _382_] _383_ d_lut_NOR2X1
AOAI22X1_2 [_377_ _379_ _381_ _383_] _384_ d_lut_OAI22X1
ANOR2X1_20 [i_add_term2_31_ i_add_term1_31_] _385_ d_lut_NOR2X1
AAND2X2_10 [i_add_term2_31_ i_add_term1_31_] _386_ d_lut_AND2X2
ANOR2X1_21 [_385_ _386_] _387_ d_lut_NOR2X1
AXOR2X1_2 [i_add_term2_30_ i_add_term1_30_] _388_ d_lut_XOR2X1
ANAND2X1_19 [_387_ _388_] _389_ d_lut_NAND2X1
ANOR2X1_22 [_384_ _389_] _24_ d_lut_NOR2X1
AINVX1_18 [_22_] _390_ d_lut_INVX1
ANAND2X1_20 [gnd _24_] _391_ d_lut_NAND2X1
AOAI21X1_19 [_24_ _390_ _391_] w_cout_8_ d_lut_OAI21X1
AINVX1_19 [w_cout_8_] _395_ d_lut_INVX1
AOR2X2_9 [i_add_term2_32_ i_add_term1_32_] _396_ d_lut_OR2X2
ANAND2X1_21 [i_add_term2_32_ i_add_term1_32_] _397_ d_lut_NAND2X1
ANAND3X1_9 [_395_ _397_ _396_] _398_ d_lut_NAND3X1
ANOR2X1_23 [i_add_term2_32_ i_add_term1_32_] _392_ d_lut_NOR2X1
AAND2X2_11 [i_add_term2_32_ i_add_term1_32_] _393_ d_lut_AND2X2
AOAI21X1_20 [_392_ _393_ w_cout_8_] _394_ d_lut_OAI21X1
ANAND2X1_22 [_394_ _398_] _0__32_ d_lut_NAND2X1
AOAI21X1_21 [_395_ _392_ _397_] _26__1_ d_lut_OAI21X1
AINVX1_20 [_26__3_] _402_ d_lut_INVX1
AOR2X2_10 [i_add_term2_35_ i_add_term1_35_] _403_ d_lut_OR2X2
ANAND2X1_23 [i_add_term2_35_ i_add_term1_35_] _404_ d_lut_NAND2X1
ANAND3X1_10 [_402_ _404_ _403_] _405_ d_lut_NAND3X1
ANOR2X1_24 [i_add_term2_35_ i_add_term1_35_] _399_ d_lut_NOR2X1
AAND2X2_12 [i_add_term2_35_ i_add_term1_35_] _400_ d_lut_AND2X2
AOAI21X1_22 [_399_ _400_ _26__3_] _401_ d_lut_OAI21X1
ANAND2X1_24 [_401_ _405_] _0__35_ d_lut_NAND2X1
AOAI21X1_23 [_402_ _399_ _404_] _25_ d_lut_OAI21X1
AINVX1_21 [_26__1_] _409_ d_lut_INVX1
AOR2X2_11 [i_add_term2_33_ i_add_term1_33_] _410_ d_lut_OR2X2
ANAND2X1_25 [i_add_term2_33_ i_add_term1_33_] _411_ d_lut_NAND2X1
ANAND3X1_11 [_409_ _411_ _410_] _412_ d_lut_NAND3X1
ANOR2X1_25 [i_add_term2_33_ i_add_term1_33_] _406_ d_lut_NOR2X1
AAND2X2_13 [i_add_term2_33_ i_add_term1_33_] _407_ d_lut_AND2X2
AOAI21X1_24 [_406_ _407_ _26__1_] _408_ d_lut_OAI21X1
ANAND2X1_26 [_408_ _412_] _0__33_ d_lut_NAND2X1
AOAI21X1_25 [_409_ _406_ _411_] _26__2_ d_lut_OAI21X1
AINVX1_22 [_26__2_] _416_ d_lut_INVX1
AOR2X2_12 [i_add_term2_34_ i_add_term1_34_] _417_ d_lut_OR2X2
ANAND2X1_27 [i_add_term2_34_ i_add_term1_34_] _418_ d_lut_NAND2X1
ANAND3X1_12 [_416_ _418_ _417_] _419_ d_lut_NAND3X1
ANOR2X1_26 [i_add_term2_34_ i_add_term1_34_] _413_ d_lut_NOR2X1
AAND2X2_14 [i_add_term2_34_ i_add_term1_34_] _414_ d_lut_AND2X2
AOAI21X1_26 [_413_ _414_ _26__2_] _415_ d_lut_OAI21X1
ANAND2X1_28 [_415_ _419_] _0__34_ d_lut_NAND2X1
AOAI21X1_27 [_416_ _413_ _418_] _26__3_ d_lut_OAI21X1
AINVX1_23 [i_add_term1_32_] _420_ d_lut_INVX1
ANOR2X1_27 [i_add_term2_32_ _420_] _421_ d_lut_NOR2X1
AINVX1_24 [i_add_term2_32_] _422_ d_lut_INVX1
ANOR2X1_28 [i_add_term1_32_ _422_] _423_ d_lut_NOR2X1
AINVX1_25 [i_add_term1_33_] _424_ d_lut_INVX1
ANOR2X1_29 [i_add_term2_33_ _424_] _425_ d_lut_NOR2X1
AINVX1_26 [i_add_term2_33_] _426_ d_lut_INVX1
ANOR2X1_30 [i_add_term1_33_ _426_] _427_ d_lut_NOR2X1
AOAI22X1_3 [_421_ _423_ _425_ _427_] _428_ d_lut_OAI22X1
ANOR2X1_31 [i_add_term2_35_ i_add_term1_35_] _429_ d_lut_NOR2X1
AAND2X2_15 [i_add_term2_35_ i_add_term1_35_] _430_ d_lut_AND2X2
ANOR2X1_32 [_429_ _430_] _431_ d_lut_NOR2X1
AXOR2X1_3 [i_add_term2_34_ i_add_term1_34_] _432_ d_lut_XOR2X1
ANAND2X1_29 [_431_ _432_] _433_ d_lut_NAND2X1
ANOR2X1_33 [_428_ _433_] _27_ d_lut_NOR2X1
AINVX1_27 [_25_] _434_ d_lut_INVX1
ANAND2X1_30 [gnd _27_] _435_ d_lut_NAND2X1
AOAI21X1_28 [_27_ _434_ _435_] w_cout_9_ d_lut_OAI21X1
AINVX1_28 [w_cout_9_] _439_ d_lut_INVX1
AOR2X2_13 [i_add_term2_36_ i_add_term1_36_] _440_ d_lut_OR2X2
ANAND2X1_31 [i_add_term2_36_ i_add_term1_36_] _441_ d_lut_NAND2X1
ANAND3X1_13 [_439_ _441_ _440_] _442_ d_lut_NAND3X1
ANOR2X1_34 [i_add_term2_36_ i_add_term1_36_] _436_ d_lut_NOR2X1
AAND2X2_16 [i_add_term2_36_ i_add_term1_36_] _437_ d_lut_AND2X2
AOAI21X1_29 [_436_ _437_ w_cout_9_] _438_ d_lut_OAI21X1
ANAND2X1_32 [_438_ _442_] _0__36_ d_lut_NAND2X1
AOAI21X1_30 [_439_ _436_ _441_] _29__1_ d_lut_OAI21X1
AINVX1_29 [_29__3_] _446_ d_lut_INVX1
AOR2X2_14 [i_add_term2_39_ i_add_term1_39_] _447_ d_lut_OR2X2
ANAND2X1_33 [i_add_term2_39_ i_add_term1_39_] _448_ d_lut_NAND2X1
ANAND3X1_14 [_446_ _448_ _447_] _449_ d_lut_NAND3X1
ANOR2X1_35 [i_add_term2_39_ i_add_term1_39_] _443_ d_lut_NOR2X1
AAND2X2_17 [i_add_term2_39_ i_add_term1_39_] _444_ d_lut_AND2X2
AOAI21X1_31 [_443_ _444_ _29__3_] _445_ d_lut_OAI21X1
ANAND2X1_34 [_445_ _449_] _0__39_ d_lut_NAND2X1
AOAI21X1_32 [_446_ _443_ _448_] _28_ d_lut_OAI21X1
AINVX1_30 [_29__1_] _453_ d_lut_INVX1
AOR2X2_15 [i_add_term2_37_ i_add_term1_37_] _454_ d_lut_OR2X2
ANAND2X1_35 [i_add_term2_37_ i_add_term1_37_] _455_ d_lut_NAND2X1
ANAND3X1_15 [_453_ _455_ _454_] _456_ d_lut_NAND3X1
ANOR2X1_36 [i_add_term2_37_ i_add_term1_37_] _450_ d_lut_NOR2X1
AAND2X2_18 [i_add_term2_37_ i_add_term1_37_] _451_ d_lut_AND2X2
AOAI21X1_33 [_450_ _451_ _29__1_] _452_ d_lut_OAI21X1
ANAND2X1_36 [_452_ _456_] _0__37_ d_lut_NAND2X1
AOAI21X1_34 [_453_ _450_ _455_] _29__2_ d_lut_OAI21X1
AINVX1_31 [_29__2_] _460_ d_lut_INVX1
AOR2X2_16 [i_add_term2_38_ i_add_term1_38_] _461_ d_lut_OR2X2
ANAND2X1_37 [i_add_term2_38_ i_add_term1_38_] _462_ d_lut_NAND2X1
ANAND3X1_16 [_460_ _462_ _461_] _463_ d_lut_NAND3X1
ANOR2X1_37 [i_add_term2_38_ i_add_term1_38_] _457_ d_lut_NOR2X1
AAND2X2_19 [i_add_term2_38_ i_add_term1_38_] _458_ d_lut_AND2X2
AOAI21X1_35 [_457_ _458_ _29__2_] _459_ d_lut_OAI21X1
ANAND2X1_38 [_459_ _463_] _0__38_ d_lut_NAND2X1
AOAI21X1_36 [_460_ _457_ _462_] _29__3_ d_lut_OAI21X1
AINVX1_32 [i_add_term1_36_] _464_ d_lut_INVX1
ANOR2X1_38 [i_add_term2_36_ _464_] _465_ d_lut_NOR2X1
AINVX1_33 [i_add_term2_36_] _466_ d_lut_INVX1
ANOR2X1_39 [i_add_term1_36_ _466_] _467_ d_lut_NOR2X1
AINVX1_34 [i_add_term1_37_] _468_ d_lut_INVX1
ANOR2X1_40 [i_add_term2_37_ _468_] _469_ d_lut_NOR2X1
AINVX1_35 [i_add_term2_37_] _470_ d_lut_INVX1
ANOR2X1_41 [i_add_term1_37_ _470_] _471_ d_lut_NOR2X1
AOAI22X1_4 [_465_ _467_ _469_ _471_] _472_ d_lut_OAI22X1
ANOR2X1_42 [i_add_term2_39_ i_add_term1_39_] _473_ d_lut_NOR2X1
AAND2X2_20 [i_add_term2_39_ i_add_term1_39_] _474_ d_lut_AND2X2
ANOR2X1_43 [_473_ _474_] _475_ d_lut_NOR2X1
AXOR2X1_4 [i_add_term2_38_ i_add_term1_38_] _476_ d_lut_XOR2X1
ANAND2X1_39 [_475_ _476_] _477_ d_lut_NAND2X1
ANOR2X1_44 [_472_ _477_] _30_ d_lut_NOR2X1
AINVX1_36 [_28_] _478_ d_lut_INVX1
ANAND2X1_40 [gnd _30_] _479_ d_lut_NAND2X1
AOAI21X1_37 [_30_ _478_ _479_] w_cout_10_ d_lut_OAI21X1
AINVX1_37 [w_cout_10_] _483_ d_lut_INVX1
AOR2X2_17 [i_add_term2_40_ i_add_term1_40_] _484_ d_lut_OR2X2
ANAND2X1_41 [i_add_term2_40_ i_add_term1_40_] _485_ d_lut_NAND2X1
ANAND3X1_17 [_483_ _485_ _484_] _486_ d_lut_NAND3X1
ANOR2X1_45 [i_add_term2_40_ i_add_term1_40_] _480_ d_lut_NOR2X1
AAND2X2_21 [i_add_term2_40_ i_add_term1_40_] _481_ d_lut_AND2X2
AOAI21X1_38 [_480_ _481_ w_cout_10_] _482_ d_lut_OAI21X1
ANAND2X1_42 [_482_ _486_] _0__40_ d_lut_NAND2X1
AOAI21X1_39 [_483_ _480_ _485_] _32__1_ d_lut_OAI21X1
AINVX1_38 [_32__3_] _490_ d_lut_INVX1
AOR2X2_18 [i_add_term2_43_ i_add_term1_43_] _491_ d_lut_OR2X2
ANAND2X1_43 [i_add_term2_43_ i_add_term1_43_] _492_ d_lut_NAND2X1
ANAND3X1_18 [_490_ _492_ _491_] _493_ d_lut_NAND3X1
ANOR2X1_46 [i_add_term2_43_ i_add_term1_43_] _487_ d_lut_NOR2X1
AAND2X2_22 [i_add_term2_43_ i_add_term1_43_] _488_ d_lut_AND2X2
AOAI21X1_40 [_487_ _488_ _32__3_] _489_ d_lut_OAI21X1
ANAND2X1_44 [_489_ _493_] _0__43_ d_lut_NAND2X1
AOAI21X1_41 [_490_ _487_ _492_] _31_ d_lut_OAI21X1
AINVX1_39 [_32__1_] _497_ d_lut_INVX1
AOR2X2_19 [i_add_term2_41_ i_add_term1_41_] _498_ d_lut_OR2X2
ANAND2X1_45 [i_add_term2_41_ i_add_term1_41_] _499_ d_lut_NAND2X1
ANAND3X1_19 [_497_ _499_ _498_] _500_ d_lut_NAND3X1
ANOR2X1_47 [i_add_term2_41_ i_add_term1_41_] _494_ d_lut_NOR2X1
AAND2X2_23 [i_add_term2_41_ i_add_term1_41_] _495_ d_lut_AND2X2
AOAI21X1_42 [_494_ _495_ _32__1_] _496_ d_lut_OAI21X1
ANAND2X1_46 [_496_ _500_] _0__41_ d_lut_NAND2X1
AOAI21X1_43 [_497_ _494_ _499_] _32__2_ d_lut_OAI21X1
AINVX1_40 [_32__2_] _504_ d_lut_INVX1
AOR2X2_20 [i_add_term2_42_ i_add_term1_42_] _505_ d_lut_OR2X2
ANAND2X1_47 [i_add_term2_42_ i_add_term1_42_] _506_ d_lut_NAND2X1
ANAND3X1_20 [_504_ _506_ _505_] _507_ d_lut_NAND3X1
ANOR2X1_48 [i_add_term2_42_ i_add_term1_42_] _501_ d_lut_NOR2X1
AAND2X2_24 [i_add_term2_42_ i_add_term1_42_] _502_ d_lut_AND2X2
AOAI21X1_44 [_501_ _502_ _32__2_] _503_ d_lut_OAI21X1
ANAND2X1_48 [_503_ _507_] _0__42_ d_lut_NAND2X1
AOAI21X1_45 [_504_ _501_ _506_] _32__3_ d_lut_OAI21X1
AINVX1_41 [i_add_term1_40_] _508_ d_lut_INVX1
ANOR2X1_49 [i_add_term2_40_ _508_] _509_ d_lut_NOR2X1
AINVX1_42 [i_add_term2_40_] _510_ d_lut_INVX1
ANOR2X1_50 [i_add_term1_40_ _510_] _511_ d_lut_NOR2X1
AINVX1_43 [i_add_term1_41_] _512_ d_lut_INVX1
ANOR2X1_51 [i_add_term2_41_ _512_] _513_ d_lut_NOR2X1
AINVX1_44 [i_add_term2_41_] _514_ d_lut_INVX1
ANOR2X1_52 [i_add_term1_41_ _514_] _515_ d_lut_NOR2X1
AOAI22X1_5 [_509_ _511_ _513_ _515_] _516_ d_lut_OAI22X1
ANOR2X1_53 [i_add_term2_43_ i_add_term1_43_] _517_ d_lut_NOR2X1
AAND2X2_25 [i_add_term2_43_ i_add_term1_43_] _518_ d_lut_AND2X2
ANOR2X1_54 [_517_ _518_] _519_ d_lut_NOR2X1
AXOR2X1_5 [i_add_term2_42_ i_add_term1_42_] _520_ d_lut_XOR2X1
ANAND2X1_49 [_519_ _520_] _521_ d_lut_NAND2X1
ANOR2X1_55 [_516_ _521_] _33_ d_lut_NOR2X1
AINVX1_45 [_31_] _522_ d_lut_INVX1
ANAND2X1_50 [gnd _33_] _523_ d_lut_NAND2X1
AOAI21X1_46 [_33_ _522_ _523_] w_cout_11_ d_lut_OAI21X1
AINVX1_46 [w_cout_11_] _527_ d_lut_INVX1
AOR2X2_21 [i_add_term2_44_ i_add_term1_44_] _528_ d_lut_OR2X2
ANAND2X1_51 [i_add_term2_44_ i_add_term1_44_] _529_ d_lut_NAND2X1
ANAND3X1_21 [_527_ _529_ _528_] _530_ d_lut_NAND3X1
ANOR2X1_56 [i_add_term2_44_ i_add_term1_44_] _524_ d_lut_NOR2X1
AAND2X2_26 [i_add_term2_44_ i_add_term1_44_] _525_ d_lut_AND2X2
AOAI21X1_47 [_524_ _525_ w_cout_11_] _526_ d_lut_OAI21X1
ANAND2X1_52 [_526_ _530_] _0__44_ d_lut_NAND2X1
AOAI21X1_48 [_527_ _524_ _529_] _35__1_ d_lut_OAI21X1
AINVX1_47 [_35__3_] _534_ d_lut_INVX1
AOR2X2_22 [i_add_term2_47_ i_add_term1_47_] _535_ d_lut_OR2X2
ANAND2X1_53 [i_add_term2_47_ i_add_term1_47_] _536_ d_lut_NAND2X1
ANAND3X1_22 [_534_ _536_ _535_] _537_ d_lut_NAND3X1
ANOR2X1_57 [i_add_term2_47_ i_add_term1_47_] _531_ d_lut_NOR2X1
AAND2X2_27 [i_add_term2_47_ i_add_term1_47_] _532_ d_lut_AND2X2
AOAI21X1_49 [_531_ _532_ _35__3_] _533_ d_lut_OAI21X1
ANAND2X1_54 [_533_ _537_] _0__47_ d_lut_NAND2X1
AOAI21X1_50 [_534_ _531_ _536_] _34_ d_lut_OAI21X1
AINVX1_48 [_35__1_] _541_ d_lut_INVX1
AOR2X2_23 [i_add_term2_45_ i_add_term1_45_] _542_ d_lut_OR2X2
ANAND2X1_55 [i_add_term2_45_ i_add_term1_45_] _543_ d_lut_NAND2X1
ANAND3X1_23 [_541_ _543_ _542_] _544_ d_lut_NAND3X1
ANOR2X1_58 [i_add_term2_45_ i_add_term1_45_] _538_ d_lut_NOR2X1
AAND2X2_28 [i_add_term2_45_ i_add_term1_45_] _539_ d_lut_AND2X2
AOAI21X1_51 [_538_ _539_ _35__1_] _540_ d_lut_OAI21X1
ANAND2X1_56 [_540_ _544_] _0__45_ d_lut_NAND2X1
AOAI21X1_52 [_541_ _538_ _543_] _35__2_ d_lut_OAI21X1
AINVX1_49 [_35__2_] _548_ d_lut_INVX1
AOR2X2_24 [i_add_term2_46_ i_add_term1_46_] _549_ d_lut_OR2X2
ANAND2X1_57 [i_add_term2_46_ i_add_term1_46_] _550_ d_lut_NAND2X1
ANAND3X1_24 [_548_ _550_ _549_] _551_ d_lut_NAND3X1
ANOR2X1_59 [i_add_term2_46_ i_add_term1_46_] _545_ d_lut_NOR2X1
AAND2X2_29 [i_add_term2_46_ i_add_term1_46_] _546_ d_lut_AND2X2
AOAI21X1_53 [_545_ _546_ _35__2_] _547_ d_lut_OAI21X1
ANAND2X1_58 [_547_ _551_] _0__46_ d_lut_NAND2X1
AOAI21X1_54 [_548_ _545_ _550_] _35__3_ d_lut_OAI21X1
AINVX1_50 [i_add_term1_44_] _552_ d_lut_INVX1
ANOR2X1_60 [i_add_term2_44_ _552_] _553_ d_lut_NOR2X1
AINVX1_51 [i_add_term2_44_] _554_ d_lut_INVX1
ANOR2X1_61 [i_add_term1_44_ _554_] _555_ d_lut_NOR2X1
AINVX1_52 [i_add_term1_45_] _556_ d_lut_INVX1
ANOR2X1_62 [i_add_term2_45_ _556_] _557_ d_lut_NOR2X1
AINVX1_53 [i_add_term2_45_] _558_ d_lut_INVX1
ANOR2X1_63 [i_add_term1_45_ _558_] _559_ d_lut_NOR2X1
AOAI22X1_6 [_553_ _555_ _557_ _559_] _560_ d_lut_OAI22X1
ANOR2X1_64 [i_add_term2_47_ i_add_term1_47_] _561_ d_lut_NOR2X1
AAND2X2_30 [i_add_term2_47_ i_add_term1_47_] _562_ d_lut_AND2X2
ANOR2X1_65 [_561_ _562_] _563_ d_lut_NOR2X1
AXOR2X1_6 [i_add_term2_46_ i_add_term1_46_] _564_ d_lut_XOR2X1
ANAND2X1_59 [_563_ _564_] _565_ d_lut_NAND2X1
ANOR2X1_66 [_560_ _565_] _36_ d_lut_NOR2X1
AINVX1_54 [_34_] _566_ d_lut_INVX1
ANAND2X1_60 [gnd _36_] _567_ d_lut_NAND2X1
AOAI21X1_55 [_36_ _566_ _567_] w_cout_12_ d_lut_OAI21X1
AINVX1_55 [w_cout_12_] _571_ d_lut_INVX1
AOR2X2_25 [i_add_term2_48_ i_add_term1_48_] _572_ d_lut_OR2X2
ANAND2X1_61 [i_add_term2_48_ i_add_term1_48_] _573_ d_lut_NAND2X1
ANAND3X1_25 [_571_ _573_ _572_] _574_ d_lut_NAND3X1
ANOR2X1_67 [i_add_term2_48_ i_add_term1_48_] _568_ d_lut_NOR2X1
AAND2X2_31 [i_add_term2_48_ i_add_term1_48_] _569_ d_lut_AND2X2
AOAI21X1_56 [_568_ _569_ w_cout_12_] _570_ d_lut_OAI21X1
ANAND2X1_62 [_570_ _574_] _0__48_ d_lut_NAND2X1
AOAI21X1_57 [_571_ _568_ _573_] _38__1_ d_lut_OAI21X1
AINVX1_56 [_38__3_] _578_ d_lut_INVX1
AOR2X2_26 [i_add_term2_51_ i_add_term1_51_] _579_ d_lut_OR2X2
ANAND2X1_63 [i_add_term2_51_ i_add_term1_51_] _580_ d_lut_NAND2X1
ANAND3X1_26 [_578_ _580_ _579_] _581_ d_lut_NAND3X1
ANOR2X1_68 [i_add_term2_51_ i_add_term1_51_] _575_ d_lut_NOR2X1
AAND2X2_32 [i_add_term2_51_ i_add_term1_51_] _576_ d_lut_AND2X2
AOAI21X1_58 [_575_ _576_ _38__3_] _577_ d_lut_OAI21X1
ANAND2X1_64 [_577_ _581_] _0__51_ d_lut_NAND2X1
AOAI21X1_59 [_578_ _575_ _580_] _37_ d_lut_OAI21X1
AINVX1_57 [_38__1_] _585_ d_lut_INVX1
AOR2X2_27 [i_add_term2_49_ i_add_term1_49_] _586_ d_lut_OR2X2
ANAND2X1_65 [i_add_term2_49_ i_add_term1_49_] _587_ d_lut_NAND2X1
ANAND3X1_27 [_585_ _587_ _586_] _588_ d_lut_NAND3X1
ANOR2X1_69 [i_add_term2_49_ i_add_term1_49_] _582_ d_lut_NOR2X1
AAND2X2_33 [i_add_term2_49_ i_add_term1_49_] _583_ d_lut_AND2X2
AOAI21X1_60 [_582_ _583_ _38__1_] _584_ d_lut_OAI21X1
ANAND2X1_66 [_584_ _588_] _0__49_ d_lut_NAND2X1
AOAI21X1_61 [_585_ _582_ _587_] _38__2_ d_lut_OAI21X1
AINVX1_58 [_38__2_] _592_ d_lut_INVX1
AOR2X2_28 [i_add_term2_50_ i_add_term1_50_] _593_ d_lut_OR2X2
ANAND2X1_67 [i_add_term2_50_ i_add_term1_50_] _594_ d_lut_NAND2X1
ANAND3X1_28 [_592_ _594_ _593_] _595_ d_lut_NAND3X1
ANOR2X1_70 [i_add_term2_50_ i_add_term1_50_] _589_ d_lut_NOR2X1
AAND2X2_34 [i_add_term2_50_ i_add_term1_50_] _590_ d_lut_AND2X2
AOAI21X1_62 [_589_ _590_ _38__2_] _591_ d_lut_OAI21X1
ANAND2X1_68 [_591_ _595_] _0__50_ d_lut_NAND2X1
AOAI21X1_63 [_592_ _589_ _594_] _38__3_ d_lut_OAI21X1
AINVX1_59 [i_add_term1_48_] _596_ d_lut_INVX1
ANOR2X1_71 [i_add_term2_48_ _596_] _597_ d_lut_NOR2X1
AINVX1_60 [i_add_term2_48_] _598_ d_lut_INVX1
ANOR2X1_72 [i_add_term1_48_ _598_] _599_ d_lut_NOR2X1
AINVX1_61 [i_add_term1_49_] _600_ d_lut_INVX1
ANOR2X1_73 [i_add_term2_49_ _600_] _601_ d_lut_NOR2X1
AINVX1_62 [i_add_term2_49_] _602_ d_lut_INVX1
ANOR2X1_74 [i_add_term1_49_ _602_] _603_ d_lut_NOR2X1
AOAI22X1_7 [_597_ _599_ _601_ _603_] _604_ d_lut_OAI22X1
ANOR2X1_75 [i_add_term2_51_ i_add_term1_51_] _605_ d_lut_NOR2X1
AAND2X2_35 [i_add_term2_51_ i_add_term1_51_] _606_ d_lut_AND2X2
ANOR2X1_76 [_605_ _606_] _607_ d_lut_NOR2X1
AXOR2X1_7 [i_add_term2_50_ i_add_term1_50_] _608_ d_lut_XOR2X1
ANAND2X1_69 [_607_ _608_] _609_ d_lut_NAND2X1
ANOR2X1_77 [_604_ _609_] _39_ d_lut_NOR2X1
AINVX1_63 [_37_] _610_ d_lut_INVX1
ANAND2X1_70 [gnd _39_] _611_ d_lut_NAND2X1
AOAI21X1_64 [_39_ _610_ _611_] cskip1_inst.cin d_lut_OAI21X1
AINVX1_64 [cskip1_inst.cin] _615_ d_lut_INVX1
AOR2X2_29 [i_add_term2_52_ i_add_term1_52_] _616_ d_lut_OR2X2
ANAND2X1_71 [i_add_term2_52_ i_add_term1_52_] _617_ d_lut_NAND2X1
ANAND3X1_29 [_615_ _617_ _616_] _618_ d_lut_NAND3X1
ANOR2X1_78 [i_add_term2_52_ i_add_term1_52_] _612_ d_lut_NOR2X1
AAND2X2_36 [i_add_term2_52_ i_add_term1_52_] _613_ d_lut_AND2X2
AOAI21X1_65 [_612_ _613_ cskip1_inst.cin] _614_ d_lut_OAI21X1
ANAND2X1_72 [_614_ _618_] cskip1_inst.rca0.fa0.o_sum d_lut_NAND2X1
AOAI21X1_66 [_615_ _612_ _617_] cskip1_inst.cout0 d_lut_OAI21X1
ANOR2X1_79 [i_add_term2_52_ i_add_term1_52_] _619_ d_lut_NOR2X1
AAND2X2_37 [i_add_term2_52_ i_add_term1_52_] _620_ d_lut_AND2X2
ANOR2X1_80 [_619_ _620_] cskip1_inst.skip0.P d_lut_NOR2X1
AINVX1_65 [cskip1_inst.cout0] _621_ d_lut_INVX1
ANAND2X1_73 [gnd cskip1_inst.skip0.P] _622_ d_lut_NAND2X1
AOAI21X1_67 [cskip1_inst.skip0.P _621_ _622_] w_cout_14_ d_lut_OAI21X1
ABUFX2_1 [w_cout_14_] cout d_lut_BUFX2
ABUFX2_2 [_0__0_] sum_0_ d_lut_BUFX2
ABUFX2_3 [_0__1_] sum_1_ d_lut_BUFX2
ABUFX2_4 [_0__2_] sum_2_ d_lut_BUFX2
ABUFX2_5 [_0__3_] sum_3_ d_lut_BUFX2
ABUFX2_6 [_0__4_] sum_4_ d_lut_BUFX2
ABUFX2_7 [_0__5_] sum_5_ d_lut_BUFX2
ABUFX2_8 [_0__6_] sum_6_ d_lut_BUFX2
ABUFX2_9 [_0__7_] sum_7_ d_lut_BUFX2
ABUFX2_10 [_0__8_] sum_8_ d_lut_BUFX2
ABUFX2_11 [_0__9_] sum_9_ d_lut_BUFX2
ABUFX2_12 [_0__10_] sum_10_ d_lut_BUFX2
ABUFX2_13 [_0__11_] sum_11_ d_lut_BUFX2
ABUFX2_14 [_0__12_] sum_12_ d_lut_BUFX2
ABUFX2_15 [_0__13_] sum_13_ d_lut_BUFX2
ABUFX2_16 [_0__14_] sum_14_ d_lut_BUFX2
ABUFX2_17 [_0__15_] sum_15_ d_lut_BUFX2
ABUFX2_18 [_0__16_] sum_16_ d_lut_BUFX2
ABUFX2_19 [_0__17_] sum_17_ d_lut_BUFX2
ABUFX2_20 [_0__18_] sum_18_ d_lut_BUFX2
ABUFX2_21 [_0__19_] sum_19_ d_lut_BUFX2
ABUFX2_22 [_0__20_] sum_20_ d_lut_BUFX2
ABUFX2_23 [_0__21_] sum_21_ d_lut_BUFX2
ABUFX2_24 [_0__22_] sum_22_ d_lut_BUFX2
ABUFX2_25 [_0__23_] sum_23_ d_lut_BUFX2
ABUFX2_26 [_0__24_] sum_24_ d_lut_BUFX2
ABUFX2_27 [_0__25_] sum_25_ d_lut_BUFX2
ABUFX2_28 [_0__26_] sum_26_ d_lut_BUFX2
ABUFX2_29 [_0__27_] sum_27_ d_lut_BUFX2
ABUFX2_30 [_0__28_] sum_28_ d_lut_BUFX2
ABUFX2_31 [_0__29_] sum_29_ d_lut_BUFX2
ABUFX2_32 [_0__30_] sum_30_ d_lut_BUFX2
ABUFX2_33 [_0__31_] sum_31_ d_lut_BUFX2
ABUFX2_34 [_0__32_] sum_32_ d_lut_BUFX2
ABUFX2_35 [_0__33_] sum_33_ d_lut_BUFX2
ABUFX2_36 [_0__34_] sum_34_ d_lut_BUFX2
ABUFX2_37 [_0__35_] sum_35_ d_lut_BUFX2
ABUFX2_38 [_0__36_] sum_36_ d_lut_BUFX2
ABUFX2_39 [_0__37_] sum_37_ d_lut_BUFX2
ABUFX2_40 [_0__38_] sum_38_ d_lut_BUFX2
ABUFX2_41 [_0__39_] sum_39_ d_lut_BUFX2
ABUFX2_42 [_0__40_] sum_40_ d_lut_BUFX2
ABUFX2_43 [_0__41_] sum_41_ d_lut_BUFX2
ABUFX2_44 [_0__42_] sum_42_ d_lut_BUFX2
ABUFX2_45 [_0__43_] sum_43_ d_lut_BUFX2
ABUFX2_46 [_0__44_] sum_44_ d_lut_BUFX2
ABUFX2_47 [_0__45_] sum_45_ d_lut_BUFX2
ABUFX2_48 [_0__46_] sum_46_ d_lut_BUFX2
ABUFX2_49 [_0__47_] sum_47_ d_lut_BUFX2
ABUFX2_50 [_0__48_] sum_48_ d_lut_BUFX2
ABUFX2_51 [_0__49_] sum_49_ d_lut_BUFX2
ABUFX2_52 [_0__50_] sum_50_ d_lut_BUFX2
ABUFX2_53 [_0__51_] sum_51_ d_lut_BUFX2
ABUFX2_54 [cskip1_inst.rca0.fa0.o_sum] sum_52_ d_lut_BUFX2
AINVX1_66 [gnd] _43_ d_lut_INVX1
AOR2X2_30 [i_add_term2_0_ i_add_term1_0_] _44_ d_lut_OR2X2
ANAND2X1_74 [i_add_term2_0_ i_add_term1_0_] _45_ d_lut_NAND2X1
ANAND3X1_30 [_43_ _45_ _44_] _46_ d_lut_NAND3X1
ANOR2X1_81 [i_add_term2_0_ i_add_term1_0_] _40_ d_lut_NOR2X1
AAND2X2_38 [i_add_term2_0_ i_add_term1_0_] _41_ d_lut_AND2X2
AOAI21X1_68 [_40_ _41_ gnd] _42_ d_lut_OAI21X1
ANAND2X1_75 [_42_ _46_] _0__0_ d_lut_NAND2X1
AOAI21X1_69 [_43_ _40_ _45_] _2__1_ d_lut_OAI21X1
AINVX1_67 [_2__3_] _50_ d_lut_INVX1
AOR2X2_31 [i_add_term2_3_ i_add_term1_3_] _51_ d_lut_OR2X2
ANAND2X1_76 [i_add_term2_3_ i_add_term1_3_] _52_ d_lut_NAND2X1
ANAND3X1_31 [_50_ _52_ _51_] _53_ d_lut_NAND3X1
ANOR2X1_82 [i_add_term2_3_ i_add_term1_3_] _47_ d_lut_NOR2X1
AAND2X2_39 [i_add_term2_3_ i_add_term1_3_] _48_ d_lut_AND2X2
AOAI21X1_70 [_47_ _48_ _2__3_] _49_ d_lut_OAI21X1
ANAND2X1_77 [_49_ _53_] _0__3_ d_lut_NAND2X1
AOAI21X1_71 [_50_ _47_ _52_] _1_ d_lut_OAI21X1
AINVX1_68 [_2__1_] _57_ d_lut_INVX1
AOR2X2_32 [i_add_term2_1_ i_add_term1_1_] _58_ d_lut_OR2X2
ANAND2X1_78 [i_add_term2_1_ i_add_term1_1_] _59_ d_lut_NAND2X1
ANAND3X1_32 [_57_ _59_ _58_] _60_ d_lut_NAND3X1
ANOR2X1_83 [i_add_term2_1_ i_add_term1_1_] _54_ d_lut_NOR2X1
AAND2X2_40 [i_add_term2_1_ i_add_term1_1_] _55_ d_lut_AND2X2
AOAI21X1_72 [_54_ _55_ _2__1_] _56_ d_lut_OAI21X1
ANAND2X1_79 [_56_ _60_] _0__1_ d_lut_NAND2X1
AOAI21X1_73 [_57_ _54_ _59_] _2__2_ d_lut_OAI21X1
AINVX1_69 [_2__2_] _64_ d_lut_INVX1
AOR2X2_33 [i_add_term2_2_ i_add_term1_2_] _65_ d_lut_OR2X2
ANAND2X1_80 [i_add_term2_2_ i_add_term1_2_] _66_ d_lut_NAND2X1
ANAND3X1_33 [_64_ _66_ _65_] _67_ d_lut_NAND3X1
ANOR2X1_84 [i_add_term2_2_ i_add_term1_2_] _61_ d_lut_NOR2X1
AAND2X2_41 [i_add_term2_2_ i_add_term1_2_] _62_ d_lut_AND2X2
AOAI21X1_74 [_61_ _62_ _2__2_] _63_ d_lut_OAI21X1
ANAND2X1_81 [_63_ _67_] _0__2_ d_lut_NAND2X1
AOAI21X1_75 [_64_ _61_ _66_] _2__3_ d_lut_OAI21X1
AINVX1_70 [i_add_term1_0_] _68_ d_lut_INVX1
ANOR2X1_85 [i_add_term2_0_ _68_] _69_ d_lut_NOR2X1
AINVX1_71 [i_add_term2_0_] _70_ d_lut_INVX1
ANOR2X1_86 [i_add_term1_0_ _70_] _71_ d_lut_NOR2X1
AINVX1_72 [i_add_term1_1_] _72_ d_lut_INVX1
ANOR2X1_87 [i_add_term2_1_ _72_] _73_ d_lut_NOR2X1
AINVX1_73 [i_add_term2_1_] _74_ d_lut_INVX1
ANOR2X1_88 [i_add_term1_1_ _74_] _75_ d_lut_NOR2X1
AOAI22X1_8 [_69_ _71_ _73_ _75_] _76_ d_lut_OAI22X1
ANOR2X1_89 [i_add_term2_3_ i_add_term1_3_] _77_ d_lut_NOR2X1
AAND2X2_42 [i_add_term2_3_ i_add_term1_3_] _78_ d_lut_AND2X2
ANOR2X1_90 [_77_ _78_] _79_ d_lut_NOR2X1
AXOR2X1_8 [i_add_term2_2_ i_add_term1_2_] _80_ d_lut_XOR2X1
ANAND2X1_82 [_79_ _80_] _81_ d_lut_NAND2X1
ANOR2X1_91 [_76_ _81_] _3_ d_lut_NOR2X1
AINVX1_74 [_1_] _82_ d_lut_INVX1
ANAND2X1_83 [gnd _3_] _83_ d_lut_NAND2X1
AOAI21X1_76 [_3_ _82_ _83_] w_cout_1_ d_lut_OAI21X1
AINVX1_75 [w_cout_1_] _87_ d_lut_INVX1
AOR2X2_34 [i_add_term2_4_ i_add_term1_4_] _88_ d_lut_OR2X2
ANAND2X1_84 [i_add_term2_4_ i_add_term1_4_] _89_ d_lut_NAND2X1
ANAND3X1_34 [_87_ _89_ _88_] _90_ d_lut_NAND3X1
ANOR2X1_92 [i_add_term2_4_ i_add_term1_4_] _84_ d_lut_NOR2X1
AAND2X2_43 [i_add_term2_4_ i_add_term1_4_] _85_ d_lut_AND2X2
AOAI21X1_77 [_84_ _85_ w_cout_1_] _86_ d_lut_OAI21X1
ANAND2X1_85 [_86_ _90_] _0__4_ d_lut_NAND2X1
AOAI21X1_78 [_87_ _84_ _89_] _5__1_ d_lut_OAI21X1
AINVX1_76 [_5__3_] _94_ d_lut_INVX1
AOR2X2_35 [i_add_term2_7_ i_add_term1_7_] _95_ d_lut_OR2X2
ANAND2X1_86 [i_add_term2_7_ i_add_term1_7_] _96_ d_lut_NAND2X1
ANAND3X1_35 [_94_ _96_ _95_] _97_ d_lut_NAND3X1
ANOR2X1_93 [i_add_term2_7_ i_add_term1_7_] _91_ d_lut_NOR2X1
AAND2X2_44 [i_add_term2_7_ i_add_term1_7_] _92_ d_lut_AND2X2
AOAI21X1_79 [_91_ _92_ _5__3_] _93_ d_lut_OAI21X1
ANAND2X1_87 [_93_ _97_] _0__7_ d_lut_NAND2X1
AOAI21X1_80 [_94_ _91_ _96_] _4_ d_lut_OAI21X1
AINVX1_77 [_5__1_] _101_ d_lut_INVX1
AOR2X2_36 [i_add_term2_5_ i_add_term1_5_] _102_ d_lut_OR2X2
ANAND2X1_88 [i_add_term2_5_ i_add_term1_5_] _103_ d_lut_NAND2X1