*SPICE netlist created from BLIF module CSkipA_63bit by blif2BSpice
.include /usr/local/share/qflow/tech/osu035/osu035_stdcells.sp
.subckt CSkipA_63bit vdd gnd i_add_term1[0] i_add_term1[1] i_add_term1[2] i_add_term1[3] i_add_term1[4] i_add_term1[5] i_add_term1[6] i_add_term1[7] i_add_term1[8] i_add_term1[9] i_add_term1[10] i_add_term1[11] i_add_term1[12] i_add_term1[13] i_add_term1[14] i_add_term1[15] i_add_term1[16] i_add_term1[17] i_add_term1[18] i_add_term1[19] i_add_term1[20] i_add_term1[21] i_add_term1[22] i_add_term1[23] i_add_term1[24] i_add_term1[25] i_add_term1[26] i_add_term1[27] i_add_term1[28] i_add_term1[29] i_add_term1[30] i_add_term1[31] i_add_term1[32] i_add_term1[33] i_add_term1[34] i_add_term1[35] i_add_term1[36] i_add_term1[37] i_add_term1[38] i_add_term1[39] i_add_term1[40] i_add_term1[41] i_add_term1[42] i_add_term1[43] i_add_term1[44] i_add_term1[45] i_add_term1[46] i_add_term1[47] i_add_term1[48] i_add_term1[49] i_add_term1[50] i_add_term1[51] i_add_term1[52] i_add_term1[53] i_add_term1[54] i_add_term1[55] i_add_term1[56] i_add_term1[57] i_add_term1[58] i_add_term1[59] i_add_term1[60] i_add_term1[61] i_add_term1[62] i_add_term2[0] i_add_term2[1] i_add_term2[2] i_add_term2[3] i_add_term2[4] i_add_term2[5] i_add_term2[6] i_add_term2[7] i_add_term2[8] i_add_term2[9] i_add_term2[10] i_add_term2[11] i_add_term2[12] i_add_term2[13] i_add_term2[14] i_add_term2[15] i_add_term2[16] i_add_term2[17] i_add_term2[18] i_add_term2[19] i_add_term2[20] i_add_term2[21] i_add_term2[22] i_add_term2[23] i_add_term2[24] i_add_term2[25] i_add_term2[26] i_add_term2[27] i_add_term2[28] i_add_term2[29] i_add_term2[30] i_add_term2[31] i_add_term2[32] i_add_term2[33] i_add_term2[34] i_add_term2[35] i_add_term2[36] i_add_term2[37] i_add_term2[38] i_add_term2[39] i_add_term2[40] i_add_term2[41] i_add_term2[42] i_add_term2[43] i_add_term2[44] i_add_term2[45] i_add_term2[46] i_add_term2[47] i_add_term2[48] i_add_term2[49] i_add_term2[50] i_add_term2[51] i_add_term2[52] i_add_term2[53] i_add_term2[54] i_add_term2[55] i_add_term2[56] i_add_term2[57] i_add_term2[58] i_add_term2[59] i_add_term2[60] i_add_term2[61] i_add_term2[62] sum[0] sum[1] sum[2] sum[3] sum[4] sum[5] sum[6] sum[7] sum[8] sum[9] sum[10] sum[11] sum[12] sum[13] sum[14] sum[15] sum[16] sum[17] sum[18] sum[19] sum[20] sum[21] sum[22] sum[23] sum[24] sum[25] sum[26] sum[27] sum[28] sum[29] sum[30] sum[31] sum[32] sum[33] sum[34] sum[35] sum[36] sum[37] sum[38] sum[39] sum[40] sum[41] sum[42] sum[43] sum[44] sum[45] sum[46] sum[47] sum[48] sum[49] sum[50] sum[51] sum[52] sum[53] sum[54] sum[55] sum[56] sum[57] sum[58] sum[59] sum[60] sum[61] sum[62] cout 
XINVX1_1 i_add_term1[13] _210_ vdd gnd INVX1
XNOR2X1_1 vdd _210_ gnd _211_ i_add_term2[13] NOR2X1
XINVX1_2 i_add_term2[13] _212_ vdd gnd INVX1
XNOR2X1_2 vdd _212_ gnd _213_ i_add_term1[13] NOR2X1
XOAI22X1_1 gnd vdd _213_ _211_ _207_ _209_ _214_ OAI22X1
XNOR2X1_3 vdd i_add_term1[15] gnd _215_ i_add_term2[15] NOR2X1
XAND2X2_1 vdd gnd i_add_term2[15] i_add_term1[15] _216_ AND2X2
XNOR2X1_4 vdd _216_ gnd _217_ _215_ NOR2X1
XXOR2X1_1 _218_ vdd i_add_term1[14] i_add_term2[14] gnd XOR2X1
XNAND2X1_1 vdd _219_ gnd _217_ _218_ NAND2X1
XNOR2X1_5 vdd _219_ gnd _12_ _214_ NOR2X1
XINVX1_3 _10_ _220_ vdd gnd INVX1
XNAND2X1_2 vdd _221_ gnd gnd _12_ NAND2X1
XOAI21X1_1 gnd vdd _12_ _220_ w_cout[4] _221_ OAI21X1
XINVX1_4 w_cout[4] _225_ vdd gnd INVX1
XOR2X2_1 _226_ i_add_term1[16] vdd gnd i_add_term2[16] OR2X2
XNAND2X1_3 vdd _227_ gnd i_add_term2[16] i_add_term1[16] NAND2X1
XNAND3X1_1 _227_ vdd gnd _225_ _226_ _228_ NAND3X1
XNOR2X1_6 vdd i_add_term1[16] gnd _222_ i_add_term2[16] NOR2X1
XAND2X2_2 vdd gnd i_add_term2[16] i_add_term1[16] _223_ AND2X2
XOAI21X1_2 gnd vdd _222_ _223_ _224_ w_cout[4] OAI21X1
XNAND2X1_4 vdd _0_[16] gnd _224_ _228_ NAND2X1
XOAI21X1_3 gnd vdd _225_ _222_ _14_[1] _227_ OAI21X1
XINVX1_5 _14_[3] _232_ vdd gnd INVX1
XOR2X2_2 _233_ i_add_term1[19] vdd gnd i_add_term2[19] OR2X2
XNAND2X1_5 vdd _234_ gnd i_add_term2[19] i_add_term1[19] NAND2X1
XNAND3X1_2 _234_ vdd gnd _232_ _233_ _235_ NAND3X1
XNOR2X1_7 vdd i_add_term1[19] gnd _229_ i_add_term2[19] NOR2X1
XAND2X2_3 vdd gnd i_add_term2[19] i_add_term1[19] _230_ AND2X2
XOAI21X1_4 gnd vdd _229_ _230_ _231_ _14_[3] OAI21X1
XNAND2X1_6 vdd _0_[19] gnd _231_ _235_ NAND2X1
XOAI21X1_5 gnd vdd _232_ _229_ _13_ _234_ OAI21X1
XINVX1_6 _14_[1] _239_ vdd gnd INVX1
XOR2X2_3 _240_ i_add_term1[17] vdd gnd i_add_term2[17] OR2X2
XNAND2X1_7 vdd _241_ gnd i_add_term2[17] i_add_term1[17] NAND2X1
XNAND3X1_3 _241_ vdd gnd _239_ _240_ _242_ NAND3X1
XNOR2X1_8 vdd i_add_term1[17] gnd _236_ i_add_term2[17] NOR2X1
XAND2X2_4 vdd gnd i_add_term2[17] i_add_term1[17] _237_ AND2X2
XOAI21X1_6 gnd vdd _236_ _237_ _238_ _14_[1] OAI21X1
XNAND2X1_8 vdd _0_[17] gnd _238_ _242_ NAND2X1
XOAI21X1_7 gnd vdd _239_ _236_ _14_[2] _241_ OAI21X1
XINVX1_7 _14_[2] _246_ vdd gnd INVX1
XOR2X2_4 _247_ i_add_term1[18] vdd gnd i_add_term2[18] OR2X2
XNAND2X1_9 vdd _248_ gnd i_add_term2[18] i_add_term1[18] NAND2X1
XNAND3X1_4 _248_ vdd gnd _246_ _247_ _249_ NAND3X1
XNOR2X1_9 vdd i_add_term1[18] gnd _243_ i_add_term2[18] NOR2X1
XAND2X2_5 vdd gnd i_add_term2[18] i_add_term1[18] _244_ AND2X2
XOAI21X1_8 gnd vdd _243_ _244_ _245_ _14_[2] OAI21X1
XNAND2X1_10 vdd _0_[18] gnd _245_ _249_ NAND2X1
XOAI21X1_9 gnd vdd _246_ _243_ _14_[3] _248_ OAI21X1
XINVX1_8 i_add_term1[16] _250_ vdd gnd INVX1
XNOR2X1_10 vdd _250_ gnd _251_ i_add_term2[16] NOR2X1
XINVX1_9 i_add_term2[16] _252_ vdd gnd INVX1
XNOR2X1_11 vdd _252_ gnd _253_ i_add_term1[16] NOR2X1
XINVX1_10 i_add_term1[17] _254_ vdd gnd INVX1
XNOR2X1_12 vdd _254_ gnd _255_ i_add_term2[17] NOR2X1
XINVX1_11 i_add_term2[17] _256_ vdd gnd INVX1
XNOR2X1_13 vdd _256_ gnd _257_ i_add_term1[17] NOR2X1
XOAI22X1_2 gnd vdd _257_ _255_ _251_ _253_ _258_ OAI22X1
XNOR2X1_14 vdd i_add_term1[19] gnd _259_ i_add_term2[19] NOR2X1
XAND2X2_6 vdd gnd i_add_term2[19] i_add_term1[19] _260_ AND2X2
XNOR2X1_15 vdd _260_ gnd _261_ _259_ NOR2X1
XXOR2X1_2 _262_ vdd i_add_term1[18] i_add_term2[18] gnd XOR2X1
XNAND2X1_11 vdd _263_ gnd _261_ _262_ NAND2X1
XNOR2X1_16 vdd _263_ gnd _15_ _258_ NOR2X1
XINVX1_12 _13_ _264_ vdd gnd INVX1
XNAND2X1_12 vdd _265_ gnd gnd _15_ NAND2X1
XOAI21X1_10 gnd vdd _15_ _264_ w_cout[5] _265_ OAI21X1
XINVX1_13 w_cout[5] _269_ vdd gnd INVX1
XOR2X2_5 _270_ i_add_term1[20] vdd gnd i_add_term2[20] OR2X2
XNAND2X1_13 vdd _271_ gnd i_add_term2[20] i_add_term1[20] NAND2X1
XNAND3X1_5 _271_ vdd gnd _269_ _270_ _272_ NAND3X1
XNOR2X1_17 vdd i_add_term1[20] gnd _266_ i_add_term2[20] NOR2X1
XAND2X2_7 vdd gnd i_add_term2[20] i_add_term1[20] _267_ AND2X2
XOAI21X1_11 gnd vdd _266_ _267_ _268_ w_cout[5] OAI21X1
XNAND2X1_14 vdd _0_[20] gnd _268_ _272_ NAND2X1
XOAI21X1_12 gnd vdd _269_ _266_ _17_[1] _271_ OAI21X1
XINVX1_14 _17_[3] _276_ vdd gnd INVX1
XOR2X2_6 _277_ i_add_term1[23] vdd gnd i_add_term2[23] OR2X2
XNAND2X1_15 vdd _278_ gnd i_add_term2[23] i_add_term1[23] NAND2X1
XNAND3X1_6 _278_ vdd gnd _276_ _277_ _279_ NAND3X1
XNOR2X1_18 vdd i_add_term1[23] gnd _273_ i_add_term2[23] NOR2X1
XAND2X2_8 vdd gnd i_add_term2[23] i_add_term1[23] _274_ AND2X2
XOAI21X1_13 gnd vdd _273_ _274_ _275_ _17_[3] OAI21X1
XNAND2X1_16 vdd _0_[23] gnd _275_ _279_ NAND2X1
XOAI21X1_14 gnd vdd _276_ _273_ _16_ _278_ OAI21X1
XINVX1_15 _17_[1] _283_ vdd gnd INVX1
XOR2X2_7 _284_ i_add_term1[21] vdd gnd i_add_term2[21] OR2X2
XNAND2X1_17 vdd _285_ gnd i_add_term2[21] i_add_term1[21] NAND2X1
XNAND3X1_7 _285_ vdd gnd _283_ _284_ _286_ NAND3X1
XNOR2X1_19 vdd i_add_term1[21] gnd _280_ i_add_term2[21] NOR2X1
XAND2X2_9 vdd gnd i_add_term2[21] i_add_term1[21] _281_ AND2X2
XOAI21X1_15 gnd vdd _280_ _281_ _282_ _17_[1] OAI21X1
XNAND2X1_18 vdd _0_[21] gnd _282_ _286_ NAND2X1
XOAI21X1_16 gnd vdd _283_ _280_ _17_[2] _285_ OAI21X1
XINVX1_16 _17_[2] _290_ vdd gnd INVX1
XOR2X2_8 _291_ i_add_term1[22] vdd gnd i_add_term2[22] OR2X2
XNAND2X1_19 vdd _292_ gnd i_add_term2[22] i_add_term1[22] NAND2X1
XNAND3X1_8 _292_ vdd gnd _290_ _291_ _293_ NAND3X1
XNOR2X1_20 vdd i_add_term1[22] gnd _287_ i_add_term2[22] NOR2X1
XAND2X2_10 vdd gnd i_add_term2[22] i_add_term1[22] _288_ AND2X2
XOAI21X1_17 gnd vdd _287_ _288_ _289_ _17_[2] OAI21X1
XNAND2X1_20 vdd _0_[22] gnd _289_ _293_ NAND2X1
XOAI21X1_18 gnd vdd _290_ _287_ _17_[3] _292_ OAI21X1
XINVX1_17 i_add_term1[20] _294_ vdd gnd INVX1
XNOR2X1_21 vdd _294_ gnd _295_ i_add_term2[20] NOR2X1
XINVX1_18 i_add_term2[20] _296_ vdd gnd INVX1
XNOR2X1_22 vdd _296_ gnd _297_ i_add_term1[20] NOR2X1
XINVX1_19 i_add_term1[21] _298_ vdd gnd INVX1
XNOR2X1_23 vdd _298_ gnd _299_ i_add_term2[21] NOR2X1
XINVX1_20 i_add_term2[21] _300_ vdd gnd INVX1
XNOR2X1_24 vdd _300_ gnd _301_ i_add_term1[21] NOR2X1
XOAI22X1_3 gnd vdd _301_ _299_ _295_ _297_ _302_ OAI22X1
XNOR2X1_25 vdd i_add_term1[23] gnd _303_ i_add_term2[23] NOR2X1
XAND2X2_11 vdd gnd i_add_term2[23] i_add_term1[23] _304_ AND2X2
XNOR2X1_26 vdd _304_ gnd _305_ _303_ NOR2X1
XXOR2X1_3 _306_ vdd i_add_term1[22] i_add_term2[22] gnd XOR2X1
XNAND2X1_21 vdd _307_ gnd _305_ _306_ NAND2X1
XNOR2X1_27 vdd _307_ gnd _18_ _302_ NOR2X1
XINVX1_21 _16_ _308_ vdd gnd INVX1
XNAND2X1_22 vdd _309_ gnd gnd _18_ NAND2X1
XOAI21X1_19 gnd vdd _18_ _308_ w_cout[6] _309_ OAI21X1
XINVX1_22 w_cout[6] _313_ vdd gnd INVX1
XOR2X2_9 _314_ i_add_term1[24] vdd gnd i_add_term2[24] OR2X2
XNAND2X1_23 vdd _315_ gnd i_add_term2[24] i_add_term1[24] NAND2X1
XNAND3X1_9 _315_ vdd gnd _313_ _314_ _316_ NAND3X1
XNOR2X1_28 vdd i_add_term1[24] gnd _310_ i_add_term2[24] NOR2X1
XAND2X2_12 vdd gnd i_add_term2[24] i_add_term1[24] _311_ AND2X2
XOAI21X1_20 gnd vdd _310_ _311_ _312_ w_cout[6] OAI21X1
XNAND2X1_24 vdd _0_[24] gnd _312_ _316_ NAND2X1
XOAI21X1_21 gnd vdd _313_ _310_ _20_[1] _315_ OAI21X1
XINVX1_23 _20_[3] _320_ vdd gnd INVX1
XOR2X2_10 _321_ i_add_term1[27] vdd gnd i_add_term2[27] OR2X2
XNAND2X1_25 vdd _322_ gnd i_add_term2[27] i_add_term1[27] NAND2X1
XNAND3X1_10 _322_ vdd gnd _320_ _321_ _323_ NAND3X1
XNOR2X1_29 vdd i_add_term1[27] gnd _317_ i_add_term2[27] NOR2X1
XAND2X2_13 vdd gnd i_add_term2[27] i_add_term1[27] _318_ AND2X2
XOAI21X1_22 gnd vdd _317_ _318_ _319_ _20_[3] OAI21X1
XNAND2X1_26 vdd _0_[27] gnd _319_ _323_ NAND2X1
XOAI21X1_23 gnd vdd _320_ _317_ _19_ _322_ OAI21X1
XINVX1_24 _20_[1] _327_ vdd gnd INVX1
XOR2X2_11 _328_ i_add_term1[25] vdd gnd i_add_term2[25] OR2X2
XNAND2X1_27 vdd _329_ gnd i_add_term2[25] i_add_term1[25] NAND2X1
XNAND3X1_11 _329_ vdd gnd _327_ _328_ _330_ NAND3X1
XNOR2X1_30 vdd i_add_term1[25] gnd _324_ i_add_term2[25] NOR2X1
XAND2X2_14 vdd gnd i_add_term2[25] i_add_term1[25] _325_ AND2X2
XOAI21X1_24 gnd vdd _324_ _325_ _326_ _20_[1] OAI21X1
XNAND2X1_28 vdd _0_[25] gnd _326_ _330_ NAND2X1
XOAI21X1_25 gnd vdd _327_ _324_ _20_[2] _329_ OAI21X1
XINVX1_25 _20_[2] _334_ vdd gnd INVX1
XOR2X2_12 _335_ i_add_term1[26] vdd gnd i_add_term2[26] OR2X2
XNAND2X1_29 vdd _336_ gnd i_add_term2[26] i_add_term1[26] NAND2X1
XNAND3X1_12 _336_ vdd gnd _334_ _335_ _337_ NAND3X1
XNOR2X1_31 vdd i_add_term1[26] gnd _331_ i_add_term2[26] NOR2X1
XAND2X2_15 vdd gnd i_add_term2[26] i_add_term1[26] _332_ AND2X2
XOAI21X1_26 gnd vdd _331_ _332_ _333_ _20_[2] OAI21X1
XNAND2X1_30 vdd _0_[26] gnd _333_ _337_ NAND2X1
XOAI21X1_27 gnd vdd _334_ _331_ _20_[3] _336_ OAI21X1
XINVX1_26 i_add_term1[24] _338_ vdd gnd INVX1
XNOR2X1_32 vdd _338_ gnd _339_ i_add_term2[24] NOR2X1
XINVX1_27 i_add_term2[24] _340_ vdd gnd INVX1
XNOR2X1_33 vdd _340_ gnd _341_ i_add_term1[24] NOR2X1
XINVX1_28 i_add_term1[25] _342_ vdd gnd INVX1
XNOR2X1_34 vdd _342_ gnd _343_ i_add_term2[25] NOR2X1
XINVX1_29 i_add_term2[25] _344_ vdd gnd INVX1
XNOR2X1_35 vdd _344_ gnd _345_ i_add_term1[25] NOR2X1
XOAI22X1_4 gnd vdd _345_ _343_ _339_ _341_ _346_ OAI22X1
XNOR2X1_36 vdd i_add_term1[27] gnd _347_ i_add_term2[27] NOR2X1
XAND2X2_16 vdd gnd i_add_term2[27] i_add_term1[27] _348_ AND2X2
XNOR2X1_37 vdd _348_ gnd _349_ _347_ NOR2X1
XXOR2X1_4 _350_ vdd i_add_term1[26] i_add_term2[26] gnd XOR2X1
XNAND2X1_31 vdd _351_ gnd _349_ _350_ NAND2X1
XNOR2X1_38 vdd _351_ gnd _21_ _346_ NOR2X1
XINVX1_30 _19_ _352_ vdd gnd INVX1
XNAND2X1_32 vdd _353_ gnd gnd _21_ NAND2X1
XOAI21X1_28 gnd vdd _21_ _352_ w_cout[7] _353_ OAI21X1
XINVX1_31 w_cout[7] _357_ vdd gnd INVX1
XOR2X2_13 _358_ i_add_term1[28] vdd gnd i_add_term2[28] OR2X2
XNAND2X1_33 vdd _359_ gnd i_add_term2[28] i_add_term1[28] NAND2X1
XNAND3X1_13 _359_ vdd gnd _357_ _358_ _360_ NAND3X1
XNOR2X1_39 vdd i_add_term1[28] gnd _354_ i_add_term2[28] NOR2X1
XAND2X2_17 vdd gnd i_add_term2[28] i_add_term1[28] _355_ AND2X2
XOAI21X1_29 gnd vdd _354_ _355_ _356_ w_cout[7] OAI21X1
XNAND2X1_34 vdd _0_[28] gnd _356_ _360_ NAND2X1
XOAI21X1_30 gnd vdd _357_ _354_ _23_[1] _359_ OAI21X1
XINVX1_32 _23_[3] _364_ vdd gnd INVX1
XOR2X2_14 _365_ i_add_term1[31] vdd gnd i_add_term2[31] OR2X2
XNAND2X1_35 vdd _366_ gnd i_add_term2[31] i_add_term1[31] NAND2X1
XNAND3X1_14 _366_ vdd gnd _364_ _365_ _367_ NAND3X1
XNOR2X1_40 vdd i_add_term1[31] gnd _361_ i_add_term2[31] NOR2X1
XAND2X2_18 vdd gnd i_add_term2[31] i_add_term1[31] _362_ AND2X2
XOAI21X1_31 gnd vdd _361_ _362_ _363_ _23_[3] OAI21X1
XNAND2X1_36 vdd _0_[31] gnd _363_ _367_ NAND2X1
XOAI21X1_32 gnd vdd _364_ _361_ _22_ _366_ OAI21X1
XINVX1_33 _23_[1] _371_ vdd gnd INVX1
XOR2X2_15 _372_ i_add_term1[29] vdd gnd i_add_term2[29] OR2X2
XNAND2X1_37 vdd _373_ gnd i_add_term2[29] i_add_term1[29] NAND2X1
XNAND3X1_15 _373_ vdd gnd _371_ _372_ _374_ NAND3X1
XNOR2X1_41 vdd i_add_term1[29] gnd _368_ i_add_term2[29] NOR2X1
XAND2X2_19 vdd gnd i_add_term2[29] i_add_term1[29] _369_ AND2X2
XOAI21X1_33 gnd vdd _368_ _369_ _370_ _23_[1] OAI21X1
XNAND2X1_38 vdd _0_[29] gnd _370_ _374_ NAND2X1
XOAI21X1_34 gnd vdd _371_ _368_ _23_[2] _373_ OAI21X1
XINVX1_34 _23_[2] _378_ vdd gnd INVX1
XOR2X2_16 _379_ i_add_term1[30] vdd gnd i_add_term2[30] OR2X2
XNAND2X1_39 vdd _380_ gnd i_add_term2[30] i_add_term1[30] NAND2X1
XNAND3X1_16 _380_ vdd gnd _378_ _379_ _381_ NAND3X1
XNOR2X1_42 vdd i_add_term1[30] gnd _375_ i_add_term2[30] NOR2X1
XAND2X2_20 vdd gnd i_add_term2[30] i_add_term1[30] _376_ AND2X2
XOAI21X1_35 gnd vdd _375_ _376_ _377_ _23_[2] OAI21X1
XNAND2X1_40 vdd _0_[30] gnd _377_ _381_ NAND2X1
XOAI21X1_36 gnd vdd _378_ _375_ _23_[3] _380_ OAI21X1
XINVX1_35 i_add_term1[28] _382_ vdd gnd INVX1
XNOR2X1_43 vdd _382_ gnd _383_ i_add_term2[28] NOR2X1
XINVX1_36 i_add_term2[28] _384_ vdd gnd INVX1
XNOR2X1_44 vdd _384_ gnd _385_ i_add_term1[28] NOR2X1
XINVX1_37 i_add_term1[29] _386_ vdd gnd INVX1
XNOR2X1_45 vdd _386_ gnd _387_ i_add_term2[29] NOR2X1
XINVX1_38 i_add_term2[29] _388_ vdd gnd INVX1
XNOR2X1_46 vdd _388_ gnd _389_ i_add_term1[29] NOR2X1
XOAI22X1_5 gnd vdd _389_ _387_ _383_ _385_ _390_ OAI22X1
XNOR2X1_47 vdd i_add_term1[31] gnd _391_ i_add_term2[31] NOR2X1
XAND2X2_21 vdd gnd i_add_term2[31] i_add_term1[31] _392_ AND2X2
XNOR2X1_48 vdd _392_ gnd _393_ _391_ NOR2X1
XXOR2X1_5 _394_ vdd i_add_term1[30] i_add_term2[30] gnd XOR2X1
XNAND2X1_41 vdd _395_ gnd _393_ _394_ NAND2X1
XNOR2X1_49 vdd _395_ gnd _24_ _390_ NOR2X1
XINVX1_39 _22_ _396_ vdd gnd INVX1
XNAND2X1_42 vdd _397_ gnd gnd _24_ NAND2X1
XOAI21X1_37 gnd vdd _24_ _396_ w_cout[8] _397_ OAI21X1
XINVX1_40 w_cout[8] _401_ vdd gnd INVX1
XOR2X2_17 _402_ i_add_term1[32] vdd gnd i_add_term2[32] OR2X2
XNAND2X1_43 vdd _403_ gnd i_add_term2[32] i_add_term1[32] NAND2X1
XNAND3X1_17 _403_ vdd gnd _401_ _402_ _404_ NAND3X1
XNOR2X1_50 vdd i_add_term1[32] gnd _398_ i_add_term2[32] NOR2X1
XAND2X2_22 vdd gnd i_add_term2[32] i_add_term1[32] _399_ AND2X2
XOAI21X1_38 gnd vdd _398_ _399_ _400_ w_cout[8] OAI21X1
XNAND2X1_44 vdd _0_[32] gnd _400_ _404_ NAND2X1
XOAI21X1_39 gnd vdd _401_ _398_ _26_[1] _403_ OAI21X1
XINVX1_41 _26_[3] _408_ vdd gnd INVX1
XOR2X2_18 _409_ i_add_term1[35] vdd gnd i_add_term2[35] OR2X2
XNAND2X1_45 vdd _410_ gnd i_add_term2[35] i_add_term1[35] NAND2X1
XNAND3X1_18 _410_ vdd gnd _408_ _409_ _411_ NAND3X1
XNOR2X1_51 vdd i_add_term1[35] gnd _405_ i_add_term2[35] NOR2X1
XAND2X2_23 vdd gnd i_add_term2[35] i_add_term1[35] _406_ AND2X2
XOAI21X1_40 gnd vdd _405_ _406_ _407_ _26_[3] OAI21X1
XNAND2X1_46 vdd _0_[35] gnd _407_ _411_ NAND2X1
XOAI21X1_41 gnd vdd _408_ _405_ _25_ _410_ OAI21X1
XINVX1_42 _26_[1] _415_ vdd gnd INVX1
XOR2X2_19 _416_ i_add_term1[33] vdd gnd i_add_term2[33] OR2X2
XNAND2X1_47 vdd _417_ gnd i_add_term2[33] i_add_term1[33] NAND2X1
XNAND3X1_19 _417_ vdd gnd _415_ _416_ _418_ NAND3X1
XNOR2X1_52 vdd i_add_term1[33] gnd _412_ i_add_term2[33] NOR2X1
XAND2X2_24 vdd gnd i_add_term2[33] i_add_term1[33] _413_ AND2X2
XOAI21X1_42 gnd vdd _412_ _413_ _414_ _26_[1] OAI21X1
XNAND2X1_48 vdd _0_[33] gnd _414_ _418_ NAND2X1
XOAI21X1_43 gnd vdd _415_ _412_ _26_[2] _417_ OAI21X1
XINVX1_43 _26_[2] _422_ vdd gnd INVX1
XOR2X2_20 _423_ i_add_term1[34] vdd gnd i_add_term2[34] OR2X2
XNAND2X1_49 vdd _424_ gnd i_add_term2[34] i_add_term1[34] NAND2X1
XNAND3X1_20 _424_ vdd gnd _422_ _423_ _425_ NAND3X1
XNOR2X1_53 vdd i_add_term1[34] gnd _419_ i_add_term2[34] NOR2X1
XAND2X2_25 vdd gnd i_add_term2[34] i_add_term1[34] _420_ AND2X2
XOAI21X1_44 gnd vdd _419_ _420_ _421_ _26_[2] OAI21X1
XNAND2X1_50 vdd _0_[34] gnd _421_ _425_ NAND2X1
XOAI21X1_45 gnd vdd _422_ _419_ _26_[3] _424_ OAI21X1
XINVX1_44 i_add_term1[32] _426_ vdd gnd INVX1
XNOR2X1_54 vdd _426_ gnd _427_ i_add_term2[32] NOR2X1
XINVX1_45 i_add_term2[32] _428_ vdd gnd INVX1
XNOR2X1_55 vdd _428_ gnd _429_ i_add_term1[32] NOR2X1
XINVX1_46 i_add_term1[33] _430_ vdd gnd INVX1
XNOR2X1_56 vdd _430_ gnd _431_ i_add_term2[33] NOR2X1
XINVX1_47 i_add_term2[33] _432_ vdd gnd INVX1
XNOR2X1_57 vdd _432_ gnd _433_ i_add_term1[33] NOR2X1
XOAI22X1_6 gnd vdd _433_ _431_ _427_ _429_ _434_ OAI22X1
XNOR2X1_58 vdd i_add_term1[35] gnd _435_ i_add_term2[35] NOR2X1
XAND2X2_26 vdd gnd i_add_term2[35] i_add_term1[35] _436_ AND2X2
XNOR2X1_59 vdd _436_ gnd _437_ _435_ NOR2X1
XXOR2X1_6 _438_ vdd i_add_term1[34] i_add_term2[34] gnd XOR2X1
XNAND2X1_51 vdd _439_ gnd _437_ _438_ NAND2X1
XNOR2X1_60 vdd _439_ gnd _27_ _434_ NOR2X1
XINVX1_48 _25_ _440_ vdd gnd INVX1
XNAND2X1_52 vdd _441_ gnd gnd _27_ NAND2X1
XOAI21X1_46 gnd vdd _27_ _440_ w_cout[9] _441_ OAI21X1
XINVX1_49 w_cout[9] _445_ vdd gnd INVX1
XOR2X2_21 _446_ i_add_term1[36] vdd gnd i_add_term2[36] OR2X2
XNAND2X1_53 vdd _447_ gnd i_add_term2[36] i_add_term1[36] NAND2X1
XNAND3X1_21 _447_ vdd gnd _445_ _446_ _448_ NAND3X1
XNOR2X1_61 vdd i_add_term1[36] gnd _442_ i_add_term2[36] NOR2X1
XAND2X2_27 vdd gnd i_add_term2[36] i_add_term1[36] _443_ AND2X2
XOAI21X1_47 gnd vdd _442_ _443_ _444_ w_cout[9] OAI21X1
XNAND2X1_54 vdd _0_[36] gnd _444_ _448_ NAND2X1
XOAI21X1_48 gnd vdd _445_ _442_ _29_[1] _447_ OAI21X1
XINVX1_50 _29_[3] _452_ vdd gnd INVX1
XOR2X2_22 _453_ i_add_term1[39] vdd gnd i_add_term2[39] OR2X2
XNAND2X1_55 vdd _454_ gnd i_add_term2[39] i_add_term1[39] NAND2X1
XNAND3X1_22 _454_ vdd gnd _452_ _453_ _455_ NAND3X1
XNOR2X1_62 vdd i_add_term1[39] gnd _449_ i_add_term2[39] NOR2X1
XAND2X2_28 vdd gnd i_add_term2[39] i_add_term1[39] _450_ AND2X2
XOAI21X1_49 gnd vdd _449_ _450_ _451_ _29_[3] OAI21X1
XNAND2X1_56 vdd _0_[39] gnd _451_ _455_ NAND2X1
XOAI21X1_50 gnd vdd _452_ _449_ _28_ _454_ OAI21X1
XINVX1_51 _29_[1] _459_ vdd gnd INVX1
XOR2X2_23 _460_ i_add_term1[37] vdd gnd i_add_term2[37] OR2X2
XNAND2X1_57 vdd _461_ gnd i_add_term2[37] i_add_term1[37] NAND2X1
XNAND3X1_23 _461_ vdd gnd _459_ _460_ _462_ NAND3X1
XNOR2X1_63 vdd i_add_term1[37] gnd _456_ i_add_term2[37] NOR2X1
XAND2X2_29 vdd gnd i_add_term2[37] i_add_term1[37] _457_ AND2X2
XOAI21X1_51 gnd vdd _456_ _457_ _458_ _29_[1] OAI21X1
XNAND2X1_58 vdd _0_[37] gnd _458_ _462_ NAND2X1
XOAI21X1_52 gnd vdd _459_ _456_ _29_[2] _461_ OAI21X1
XINVX1_52 _29_[2] _466_ vdd gnd INVX1
XOR2X2_24 _467_ i_add_term1[38] vdd gnd i_add_term2[38] OR2X2
XNAND2X1_59 vdd _468_ gnd i_add_term2[38] i_add_term1[38] NAND2X1
XNAND3X1_24 _468_ vdd gnd _466_ _467_ _469_ NAND3X1
XNOR2X1_64 vdd i_add_term1[38] gnd _463_ i_add_term2[38] NOR2X1
XAND2X2_30 vdd gnd i_add_term2[38] i_add_term1[38] _464_ AND2X2
XOAI21X1_53 gnd vdd _463_ _464_ _465_ _29_[2] OAI21X1
XNAND2X1_60 vdd _0_[38] gnd _465_ _469_ NAND2X1
XOAI21X1_54 gnd vdd _466_ _463_ _29_[3] _468_ OAI21X1
XINVX1_53 i_add_term1[36] _470_ vdd gnd INVX1
XNOR2X1_65 vdd _470_ gnd _471_ i_add_term2[36] NOR2X1
XINVX1_54 i_add_term2[36] _472_ vdd gnd INVX1
XNOR2X1_66 vdd _472_ gnd _473_ i_add_term1[36] NOR2X1
XINVX1_55 i_add_term1[37] _474_ vdd gnd INVX1
XNOR2X1_67 vdd _474_ gnd _475_ i_add_term2[37] NOR2X1
XINVX1_56 i_add_term2[37] _476_ vdd gnd INVX1
XNOR2X1_68 vdd _476_ gnd _477_ i_add_term1[37] NOR2X1
XOAI22X1_7 gnd vdd _477_ _475_ _471_ _473_ _478_ OAI22X1
XNOR2X1_69 vdd i_add_term1[39] gnd _479_ i_add_term2[39] NOR2X1
XAND2X2_31 vdd gnd i_add_term2[39] i_add_term1[39] _480_ AND2X2
XNOR2X1_70 vdd _480_ gnd _481_ _479_ NOR2X1
XXOR2X1_7 _482_ vdd i_add_term1[38] i_add_term2[38] gnd XOR2X1
XNAND2X1_61 vdd _483_ gnd _481_ _482_ NAND2X1
XNOR2X1_71 vdd _483_ gnd _30_ _478_ NOR2X1
XINVX1_57 _28_ _484_ vdd gnd INVX1
XNAND2X1_62 vdd _485_ gnd gnd _30_ NAND2X1
XOAI21X1_55 gnd vdd _30_ _484_ w_cout[10] _485_ OAI21X1
XINVX1_58 w_cout[10] _489_ vdd gnd INVX1
XOR2X2_25 _490_ i_add_term1[40] vdd gnd i_add_term2[40] OR2X2
XNAND2X1_63 vdd _491_ gnd i_add_term2[40] i_add_term1[40] NAND2X1
XNAND3X1_25 _491_ vdd gnd _489_ _490_ _492_ NAND3X1
XNOR2X1_72 vdd i_add_term1[40] gnd _486_ i_add_term2[40] NOR2X1
XAND2X2_32 vdd gnd i_add_term2[40] i_add_term1[40] _487_ AND2X2
XOAI21X1_56 gnd vdd _486_ _487_ _488_ w_cout[10] OAI21X1
XNAND2X1_64 vdd _0_[40] gnd _488_ _492_ NAND2X1
XOAI21X1_57 gnd vdd _489_ _486_ _32_[1] _491_ OAI21X1
XINVX1_59 _32_[3] _496_ vdd gnd INVX1
XOR2X2_26 _497_ i_add_term1[43] vdd gnd i_add_term2[43] OR2X2
XNAND2X1_65 vdd _498_ gnd i_add_term2[43] i_add_term1[43] NAND2X1
XNAND3X1_26 _498_ vdd gnd _496_ _497_ _499_ NAND3X1
XNOR2X1_73 vdd i_add_term1[43] gnd _493_ i_add_term2[43] NOR2X1
XAND2X2_33 vdd gnd i_add_term2[43] i_add_term1[43] _494_ AND2X2
XOAI21X1_58 gnd vdd _493_ _494_ _495_ _32_[3] OAI21X1
XNAND2X1_66 vdd _0_[43] gnd _495_ _499_ NAND2X1
XOAI21X1_59 gnd vdd _496_ _493_ _31_ _498_ OAI21X1
XINVX1_60 _32_[1] _503_ vdd gnd INVX1
XOR2X2_27 _504_ i_add_term1[41] vdd gnd i_add_term2[41] OR2X2
XNAND2X1_67 vdd _505_ gnd i_add_term2[41] i_add_term1[41] NAND2X1
XNAND3X1_27 _505_ vdd gnd _503_ _504_ _506_ NAND3X1
XNOR2X1_74 vdd i_add_term1[41] gnd _500_ i_add_term2[41] NOR2X1
XAND2X2_34 vdd gnd i_add_term2[41] i_add_term1[41] _501_ AND2X2
XOAI21X1_60 gnd vdd _500_ _501_ _502_ _32_[1] OAI21X1
XNAND2X1_68 vdd _0_[41] gnd _502_ _506_ NAND2X1
XOAI21X1_61 gnd vdd _503_ _500_ _32_[2] _505_ OAI21X1
XINVX1_61 _32_[2] _510_ vdd gnd INVX1
XOR2X2_28 _511_ i_add_term1[42] vdd gnd i_add_term2[42] OR2X2
XNAND2X1_69 vdd _512_ gnd i_add_term2[42] i_add_term1[42] NAND2X1
XNAND3X1_28 _512_ vdd gnd _510_ _511_ _513_ NAND3X1
XNOR2X1_75 vdd i_add_term1[42] gnd _507_ i_add_term2[42] NOR2X1
XAND2X2_35 vdd gnd i_add_term2[42] i_add_term1[42] _508_ AND2X2
XOAI21X1_62 gnd vdd _507_ _508_ _509_ _32_[2] OAI21X1
XNAND2X1_70 vdd _0_[42] gnd _509_ _513_ NAND2X1
XOAI21X1_63 gnd vdd _510_ _507_ _32_[3] _512_ OAI21X1
XINVX1_62 i_add_term1[40] _514_ vdd gnd INVX1
XNOR2X1_76 vdd _514_ gnd _515_ i_add_term2[40] NOR2X1
XINVX1_63 i_add_term2[40] _516_ vdd gnd INVX1
XNOR2X1_77 vdd _516_ gnd _517_ i_add_term1[40] NOR2X1
XINVX1_64 i_add_term1[41] _518_ vdd gnd INVX1
XNOR2X1_78 vdd _518_ gnd _519_ i_add_term2[41] NOR2X1
XINVX1_65 i_add_term2[41] _520_ vdd gnd INVX1
XNOR2X1_79 vdd _520_ gnd _521_ i_add_term1[41] NOR2X1
XOAI22X1_8 gnd vdd _521_ _519_ _515_ _517_ _522_ OAI22X1
XNOR2X1_80 vdd i_add_term1[43] gnd _523_ i_add_term2[43] NOR2X1
XAND2X2_36 vdd gnd i_add_term2[43] i_add_term1[43] _524_ AND2X2
XNOR2X1_81 vdd _524_ gnd _525_ _523_ NOR2X1
XXOR2X1_8 _526_ vdd i_add_term1[42] i_add_term2[42] gnd XOR2X1
XNAND2X1_71 vdd _527_ gnd _525_ _526_ NAND2X1
XNOR2X1_82 vdd _527_ gnd _33_ _522_ NOR2X1
XINVX1_66 _31_ _528_ vdd gnd INVX1
XNAND2X1_72 vdd _529_ gnd gnd _33_ NAND2X1
XOAI21X1_64 gnd vdd _33_ _528_ w_cout[11] _529_ OAI21X1
XINVX1_67 w_cout[11] _533_ vdd gnd INVX1
XOR2X2_29 _534_ i_add_term1[44] vdd gnd i_add_term2[44] OR2X2
XNAND2X1_73 vdd _535_ gnd i_add_term2[44] i_add_term1[44] NAND2X1
XNAND3X1_29 _535_ vdd gnd _533_ _534_ _536_ NAND3X1
XNOR2X1_83 vdd i_add_term1[44] gnd _530_ i_add_term2[44] NOR2X1
XAND2X2_37 vdd gnd i_add_term2[44] i_add_term1[44] _531_ AND2X2
XOAI21X1_65 gnd vdd _530_ _531_ _532_ w_cout[11] OAI21X1
XNAND2X1_74 vdd _0_[44] gnd _532_ _536_ NAND2X1
XOAI21X1_66 gnd vdd _533_ _530_ _35_[1] _535_ OAI21X1
XINVX1_68 _35_[3] _540_ vdd gnd INVX1
XOR2X2_30 _541_ i_add_term1[47] vdd gnd i_add_term2[47] OR2X2
XNAND2X1_75 vdd _542_ gnd i_add_term2[47] i_add_term1[47] NAND2X1
XNAND3X1_30 _542_ vdd gnd _540_ _541_ _543_ NAND3X1
XNOR2X1_84 vdd i_add_term1[47] gnd _537_ i_add_term2[47] NOR2X1
XAND2X2_38 vdd gnd i_add_term2[47] i_add_term1[47] _538_ AND2X2
XOAI21X1_67 gnd vdd _537_ _538_ _539_ _35_[3] OAI21X1
XNAND2X1_76 vdd _0_[47] gnd _539_ _543_ NAND2X1
XOAI21X1_68 gnd vdd _540_ _537_ _34_ _542_ OAI21X1
XINVX1_69 _35_[1] _547_ vdd gnd INVX1
XOR2X2_31 _548_ i_add_term1[45] vdd gnd i_add_term2[45] OR2X2
XNAND2X1_77 vdd _549_ gnd i_add_term2[45] i_add_term1[45] NAND2X1
XNAND3X1_31 _549_ vdd gnd _547_ _548_ _550_ NAND3X1
XNOR2X1_85 vdd i_add_term1[45] gnd _544_ i_add_term2[45] NOR2X1
XAND2X2_39 vdd gnd i_add_term2[45] i_add_term1[45] _545_ AND2X2
XOAI21X1_69 gnd vdd _544_ _545_ _546_ _35_[1] OAI21X1
XNAND2X1_78 vdd _0_[45] gnd _546_ _550_ NAND2X1
XOAI21X1_70 gnd vdd _547_ _544_ _35_[2] _549_ OAI21X1
XINVX1_70 _35_[2] _554_ vdd gnd INVX1
XOR2X2_32 _555_ i_add_term1[46] vdd gnd i_add_term2[46] OR2X2
XNAND2X1_79 vdd _556_ gnd i_add_term2[46] i_add_term1[46] NAND2X1
XNAND3X1_32 _556_ vdd gnd _554_ _555_ _557_ NAND3X1
XNOR2X1_86 vdd i_add_term1[46] gnd _551_ i_add_term2[46] NOR2X1
XAND2X2_40 vdd gnd i_add_term2[46] i_add_term1[46] _552_ AND2X2
XOAI21X1_71 gnd vdd _551_ _552_ _553_ _35_[2] OAI21X1
XNAND2X1_80 vdd _0_[46] gnd _553_ _557_ NAND2X1
XOAI21X1_72 gnd vdd _554_ _551_ _35_[3] _556_ OAI21X1
XINVX1_71 i_add_term1[44] _558_ vdd gnd INVX1
XNOR2X1_87 vdd _558_ gnd _559_ i_add_term2[44] NOR2X1
XINVX1_72 i_add_term2[44] _560_ vdd gnd INVX1
XNOR2X1_88 vdd _560_ gnd _561_ i_add_term1[44] NOR2X1
XINVX1_73 i_add_term1[45] _562_ vdd gnd INVX1
XNOR2X1_89 vdd _562_ gnd _563_ i_add_term2[45] NOR2X1
XINVX1_74 i_add_term2[45] _564_ vdd gnd INVX1
XNOR2X1_90 vdd _564_ gnd _565_ i_add_term1[45] NOR2X1
XOAI22X1_9 gnd vdd _565_ _563_ _559_ _561_ _566_ OAI22X1
XNOR2X1_91 vdd i_add_term1[47] gnd _567_ i_add_term2[47] NOR2X1
XAND2X2_41 vdd gnd i_add_term2[47] i_add_term1[47] _568_ AND2X2
XNOR2X1_92 vdd _568_ gnd _569_ _567_ NOR2X1
XXOR2X1_9 _570_ vdd i_add_term1[46] i_add_term2[46] gnd XOR2X1
XNAND2X1_81 vdd _571_ gnd _569_ _570_ NAND2X1
XNOR2X1_93 vdd _571_ gnd _36_ _566_ NOR2X1
XINVX1_75 _34_ _572_ vdd gnd INVX1
XNAND2X1_82 vdd _573_ gnd gnd _36_ NAND2X1
XOAI21X1_73 gnd vdd _36_ _572_ w_cout[12] _573_ OAI21X1
XINVX1_76 w_cout[12] _577_ vdd gnd INVX1
XOR2X2_33 _578_ i_add_term1[48] vdd gnd i_add_term2[48] OR2X2
XNAND2X1_83 vdd _579_ gnd i_add_term2[48] i_add_term1[48] NAND2X1
XNAND3X1_33 _579_ vdd gnd _577_ _578_ _580_ NAND3X1
XNOR2X1_94 vdd i_add_term1[48] gnd _574_ i_add_term2[48] NOR2X1
XAND2X2_42 vdd gnd i_add_term2[48] i_add_term1[48] _575_ AND2X2
XOAI21X1_74 gnd vdd _574_ _575_ _576_ w_cout[12] OAI21X1
XNAND2X1_84 vdd _0_[48] gnd _576_ _580_ NAND2X1
XOAI21X1_75 gnd vdd _577_ _574_ _38_[1] _579_ OAI21X1
XINVX1_77 _38_[3] _584_ vdd gnd INVX1
XOR2X2_34 _585_ i_add_term1[51] vdd gnd i_add_term2[51] OR2X2
XNAND2X1_85 vdd _586_ gnd i_add_term2[51] i_add_term1[51] NAND2X1
XNAND3X1_34 _586_ vdd gnd _584_ _585_ _587_ NAND3X1
XNOR2X1_95 vdd i_add_term1[51] gnd _581_ i_add_term2[51] NOR2X1
XAND2X2_43 vdd gnd i_add_term2[51] i_add_term1[51] _582_ AND2X2
XOAI21X1_76 gnd vdd _581_ _582_ _583_ _38_[3] OAI21X1
XNAND2X1_86 vdd _0_[51] gnd _583_ _587_ NAND2X1
XOAI21X1_77 gnd vdd _584_ _581_ _37_ _586_ OAI21X1
XINVX1_78 _38_[1] _591_ vdd gnd INVX1
XOR2X2_35 _592_ i_add_term1[49] vdd gnd i_add_term2[49] OR2X2
XNAND2X1_87 vdd _593_ gnd i_add_term2[49] i_add_term1[49] NAND2X1
XNAND3X1_35 _593_ vdd gnd _591_ _592_ _594_ NAND3X1
XNOR2X1_96 vdd i_add_term1[49] gnd _588_ i_add_term2[49] NOR2X1
XAND2X2_44 vdd gnd i_add_term2[49] i_add_term1[49] _589_ AND2X2
XOAI21X1_78 gnd vdd _588_ _589_ _590_ _38_[1] OAI21X1
XNAND2X1_88 vdd _0_[49] gnd _590_ _594_ NAND2X1
XOAI21X1_79 gnd vdd _591_ _588_ _38_[2] _593_ OAI21X1
XINVX1_79 _38_[2] _598_ vdd gnd INVX1
XOR2X2_36 _599_ i_add_term1[50] vdd gnd i_add_term2[50] OR2X2
XNAND2X1_89 vdd _600_ gnd i_add_term2[50] i_add_term1[50] NAND2X1
XNAND3X1_36 _600_ vdd gnd _598_ _599_ _601_ NAND3X1
XNOR2X1_97 vdd i_add_term1[50] gnd _595_ i_add_term2[50] NOR2X1
XAND2X2_45 vdd gnd i_add_term2[50] i_add_term1[50] _596_ AND2X2
XOAI21X1_80 gnd vdd _595_ _596_ _597_ _38_[2] OAI21X1
XNAND2X1_90 vdd _0_[50] gnd _597_ _601_ NAND2X1
XOAI21X1_81 gnd vdd _598_ _595_ _38_[3] _600_ OAI21X1
XINVX1_80 i_add_term1[48] _602_ vdd gnd INVX1
XNOR2X1_98 vdd _602_ gnd _603_ i_add_term2[48] NOR2X1
XINVX1_81 i_add_term2[48] _604_ vdd gnd INVX1
XNOR2X1_99 vdd _604_ gnd _605_ i_add_term1[48] NOR2X1
XINVX1_82 i_add_term1[49] _606_ vdd gnd INVX1
XNOR2X1_100 vdd _606_ gnd _607_ i_add_term2[49] NOR2X1
XINVX1_83 i_add_term2[49] _608_ vdd gnd INVX1
XNOR2X1_101 vdd _608_ gnd _609_ i_add_term1[49] NOR2X1
XOAI22X1_10 gnd vdd _609_ _607_ _603_ _605_ _610_ OAI22X1
XNOR2X1_102 vdd i_add_term1[51] gnd _611_ i_add_term2[51] NOR2X1
XAND2X2_46 vdd gnd i_add_term2[51] i_add_term1[51] _612_ AND2X2
XNOR2X1_103 vdd _612_ gnd _613_ _611_ NOR2X1
XXOR2X1_10 _614_ vdd i_add_term1[50] i_add_term2[50] gnd XOR2X1
XNAND2X1_91 vdd _615_ gnd _613_ _614_ NAND2X1
XNOR2X1_104 vdd _615_ gnd _39_ _610_ NOR2X1
XINVX1_84 _37_ _616_ vdd gnd INVX1
XNAND2X1_92 vdd _617_ gnd gnd _39_ NAND2X1
XOAI21X1_82 gnd vdd _39_ _616_ w_cout[13] _617_ OAI21X1
XINVX1_85 w_cout[13] _621_ vdd gnd INVX1
XOR2X2_37 _622_ i_add_term1[52] vdd gnd i_add_term2[52] OR2X2
XNAND2X1_93 vdd _623_ gnd i_add_term2[52] i_add_term1[52] NAND2X1
XNAND3X1_37 _623_ vdd gnd _621_ _622_ _624_ NAND3X1
XNOR2X1_105 vdd i_add_term1[52] gnd _618_ i_add_term2[52] NOR2X1
XAND2X2_47 vdd gnd i_add_term2[52] i_add_term1[52] _619_ AND2X2