* XSpice netlist created from SPICE and liberty sources by spi2xspice.py
*SPICE netlist created from BLIF module CSkipA_64bit by blif2BSpice
.subckt CSkipA_64bit a_vdd a_gnd a_i_add_term1_0_ a_i_add_term1_1_ a_i_add_term1_2_ a_i_add_term1_3_ a_i_add_term1_4_ a_i_add_term1_5_ a_i_add_term1_6_ a_i_add_term1_7_ a_i_add_term1_8_ a_i_add_term1_9_ a_i_add_term1_10_ a_i_add_term1_11_ a_i_add_term1_12_ a_i_add_term1_13_ a_i_add_term1_14_ a_i_add_term1_15_ a_i_add_term1_16_ a_i_add_term1_17_ a_i_add_term1_18_ a_i_add_term1_19_ a_i_add_term1_20_ a_i_add_term1_21_ a_i_add_term1_22_ a_i_add_term1_23_ a_i_add_term1_24_ a_i_add_term1_25_ a_i_add_term1_26_ a_i_add_term1_27_ a_i_add_term1_28_ a_i_add_term1_29_ a_i_add_term1_30_ a_i_add_term1_31_ a_i_add_term1_32_ a_i_add_term1_33_ a_i_add_term1_34_ a_i_add_term1_35_ a_i_add_term1_36_ a_i_add_term1_37_ a_i_add_term1_38_ a_i_add_term1_39_ a_i_add_term1_40_ a_i_add_term1_41_ a_i_add_term1_42_ a_i_add_term1_43_ a_i_add_term1_44_ a_i_add_term1_45_ a_i_add_term1_46_ a_i_add_term1_47_ a_i_add_term1_48_ a_i_add_term1_49_ a_i_add_term1_50_ a_i_add_term1_51_ a_i_add_term1_52_ a_i_add_term1_53_ a_i_add_term1_54_ a_i_add_term1_55_ a_i_add_term1_56_ a_i_add_term1_57_ a_i_add_term1_58_ a_i_add_term1_59_ a_i_add_term1_60_ a_i_add_term1_61_ a_i_add_term1_62_ a_i_add_term1_63_ a_i_add_term2_0_ a_i_add_term2_1_ a_i_add_term2_2_ a_i_add_term2_3_ a_i_add_term2_4_ a_i_add_term2_5_ a_i_add_term2_6_ a_i_add_term2_7_ a_i_add_term2_8_ a_i_add_term2_9_ a_i_add_term2_10_ a_i_add_term2_11_ a_i_add_term2_12_ a_i_add_term2_13_ a_i_add_term2_14_ a_i_add_term2_15_ a_i_add_term2_16_ a_i_add_term2_17_ a_i_add_term2_18_ a_i_add_term2_19_ a_i_add_term2_20_ a_i_add_term2_21_ a_i_add_term2_22_ a_i_add_term2_23_ a_i_add_term2_24_ a_i_add_term2_25_ a_i_add_term2_26_ a_i_add_term2_27_ a_i_add_term2_28_ a_i_add_term2_29_ a_i_add_term2_30_ a_i_add_term2_31_ a_i_add_term2_32_ a_i_add_term2_33_ a_i_add_term2_34_ a_i_add_term2_35_ a_i_add_term2_36_ a_i_add_term2_37_ a_i_add_term2_38_ a_i_add_term2_39_ a_i_add_term2_40_ a_i_add_term2_41_ a_i_add_term2_42_ a_i_add_term2_43_ a_i_add_term2_44_ a_i_add_term2_45_ a_i_add_term2_46_ a_i_add_term2_47_ a_i_add_term2_48_ a_i_add_term2_49_ a_i_add_term2_50_ a_i_add_term2_51_ a_i_add_term2_52_ a_i_add_term2_53_ a_i_add_term2_54_ a_i_add_term2_55_ a_i_add_term2_56_ a_i_add_term2_57_ a_i_add_term2_58_ a_i_add_term2_59_ a_i_add_term2_60_ a_i_add_term2_61_ a_i_add_term2_62_ a_i_add_term2_63_ a_sum_0_ a_sum_1_ a_sum_2_ a_sum_3_ a_sum_4_ a_sum_5_ a_sum_6_ a_sum_7_ a_sum_8_ a_sum_9_ a_sum_10_ a_sum_11_ a_sum_12_ a_sum_13_ a_sum_14_ a_sum_15_ a_sum_16_ a_sum_17_ a_sum_18_ a_sum_19_ a_sum_20_ a_sum_21_ a_sum_22_ a_sum_23_ a_sum_24_ a_sum_25_ a_sum_26_ a_sum_27_ a_sum_28_ a_sum_29_ a_sum_30_ a_sum_31_ a_sum_32_ a_sum_33_ a_sum_34_ a_sum_35_ a_sum_36_ a_sum_37_ a_sum_38_ a_sum_39_ a_sum_40_ a_sum_41_ a_sum_42_ a_sum_43_ a_sum_44_ a_sum_45_ a_sum_46_ a_sum_47_ a_sum_48_ a_sum_49_ a_sum_50_ a_sum_51_ a_sum_52_ a_sum_53_ a_sum_54_ a_sum_55_ a_sum_56_ a_sum_57_ a_sum_58_ a_sum_59_ a_sum_60_ a_sum_61_ a_sum_62_ a_sum_63_ a_cout
ANOR2X1_1 [i_add_term2_45_ _210_] _211_ d_lut_NOR2X1
AINVX1_1 [i_add_term2_45_] _212_ d_lut_INVX1
ANOR2X1_2 [i_add_term1_45_ _212_] _213_ d_lut_NOR2X1
AOAI22X1_1 [_207_ _209_ _211_ _213_] _214_ d_lut_OAI22X1
ANOR2X1_3 [i_add_term2_47_ i_add_term1_47_] _215_ d_lut_NOR2X1
AAND2X2_1 [i_add_term2_47_ i_add_term1_47_] _216_ d_lut_AND2X2
ANOR2X1_4 [_215_ _216_] _217_ d_lut_NOR2X1
AXOR2X1_1 [i_add_term2_46_ i_add_term1_46_] _218_ d_lut_XOR2X1
ANAND2X1_1 [_217_ _218_] _219_ d_lut_NAND2X1
ANOR2X1_5 [_214_ _219_] _33_ d_lut_NOR2X1
AINVX1_2 [_31_] _220_ d_lut_INVX1
ANAND2X1_2 [gnd _33_] _221_ d_lut_NAND2X1
AOAI21X1_1 [_33_ _220_ _221_] w_cout_11_ d_lut_OAI21X1
AINVX1_3 [i_add_term1_48_] _222_ d_lut_INVX1
ANOR2X1_6 [i_add_term2_48_ _222_] _223_ d_lut_NOR2X1
AINVX1_4 [i_add_term2_48_] _224_ d_lut_INVX1
ANOR2X1_7 [i_add_term1_48_ _224_] _225_ d_lut_NOR2X1
AINVX1_5 [i_add_term1_49_] _226_ d_lut_INVX1
ANOR2X1_8 [i_add_term2_49_ _226_] _227_ d_lut_NOR2X1
AINVX1_6 [i_add_term2_49_] _228_ d_lut_INVX1
ANOR2X1_9 [i_add_term1_49_ _228_] _229_ d_lut_NOR2X1
AOAI22X1_2 [_223_ _225_ _227_ _229_] _230_ d_lut_OAI22X1
ANOR2X1_10 [i_add_term2_51_ i_add_term1_51_] _231_ d_lut_NOR2X1
AAND2X2_2 [i_add_term2_51_ i_add_term1_51_] _232_ d_lut_AND2X2
ANOR2X1_11 [_231_ _232_] _233_ d_lut_NOR2X1
AXOR2X1_2 [i_add_term2_50_ i_add_term1_50_] _234_ d_lut_XOR2X1
ANAND2X1_3 [_233_ _234_] _235_ d_lut_NAND2X1
ANOR2X1_12 [_230_ _235_] _36_ d_lut_NOR2X1
AINVX1_7 [_34_] _236_ d_lut_INVX1
ANAND2X1_4 [gnd _36_] _237_ d_lut_NAND2X1
AOAI21X1_2 [_36_ _236_ _237_] w_cout_12_ d_lut_OAI21X1
AINVX1_8 [i_add_term1_52_] _238_ d_lut_INVX1
ANOR2X1_13 [i_add_term2_52_ _238_] _239_ d_lut_NOR2X1
AINVX1_9 [i_add_term2_52_] _240_ d_lut_INVX1
ANOR2X1_14 [i_add_term1_52_ _240_] _241_ d_lut_NOR2X1
AINVX1_10 [i_add_term1_53_] _242_ d_lut_INVX1
ANOR2X1_15 [i_add_term2_53_ _242_] _243_ d_lut_NOR2X1
AINVX1_11 [i_add_term2_53_] _244_ d_lut_INVX1
ANOR2X1_16 [i_add_term1_53_ _244_] _245_ d_lut_NOR2X1
AOAI22X1_3 [_239_ _241_ _243_ _245_] _246_ d_lut_OAI22X1
ANOR2X1_17 [i_add_term2_55_ i_add_term1_55_] _247_ d_lut_NOR2X1
AAND2X2_3 [i_add_term2_55_ i_add_term1_55_] _248_ d_lut_AND2X2
ANOR2X1_18 [_247_ _248_] _249_ d_lut_NOR2X1
AXOR2X1_3 [i_add_term2_54_ i_add_term1_54_] _250_ d_lut_XOR2X1
ANAND2X1_5 [_249_ _250_] _251_ d_lut_NAND2X1
ANOR2X1_19 [_246_ _251_] _39_ d_lut_NOR2X1
AINVX1_12 [_37_] _252_ d_lut_INVX1
ANAND2X1_6 [gnd _39_] _253_ d_lut_NAND2X1
AOAI21X1_3 [_39_ _252_ _253_] w_cout_13_ d_lut_OAI21X1
AINVX1_13 [i_add_term1_56_] _254_ d_lut_INVX1
ANOR2X1_20 [i_add_term2_56_ _254_] _255_ d_lut_NOR2X1
AINVX1_14 [i_add_term2_56_] _256_ d_lut_INVX1
ANOR2X1_21 [i_add_term1_56_ _256_] _257_ d_lut_NOR2X1
AINVX1_15 [i_add_term1_57_] _258_ d_lut_INVX1
ANOR2X1_22 [i_add_term2_57_ _258_] _259_ d_lut_NOR2X1
AINVX1_16 [i_add_term2_57_] _260_ d_lut_INVX1
ANOR2X1_23 [i_add_term1_57_ _260_] _261_ d_lut_NOR2X1
AOAI22X1_4 [_255_ _257_ _259_ _261_] _262_ d_lut_OAI22X1
ANOR2X1_24 [i_add_term2_59_ i_add_term1_59_] _263_ d_lut_NOR2X1
AAND2X2_4 [i_add_term2_59_ i_add_term1_59_] _264_ d_lut_AND2X2
ANOR2X1_25 [_263_ _264_] _265_ d_lut_NOR2X1
AXOR2X1_4 [i_add_term2_58_ i_add_term1_58_] _266_ d_lut_XOR2X1
ANAND2X1_7 [_265_ _266_] _267_ d_lut_NAND2X1
ANOR2X1_26 [_262_ _267_] _42_ d_lut_NOR2X1
AINVX1_17 [_40_] _268_ d_lut_INVX1
ANAND2X1_8 [gnd _42_] _269_ d_lut_NAND2X1
AOAI21X1_4 [_42_ _268_ _269_] w_cout_14_ d_lut_OAI21X1
AINVX1_18 [i_add_term1_60_] _270_ d_lut_INVX1
ANOR2X1_27 [i_add_term2_60_ _270_] _271_ d_lut_NOR2X1
AINVX1_19 [i_add_term2_60_] _272_ d_lut_INVX1
ANOR2X1_28 [i_add_term1_60_ _272_] _273_ d_lut_NOR2X1
AINVX1_20 [i_add_term1_61_] _274_ d_lut_INVX1
ANOR2X1_29 [i_add_term2_61_ _274_] _275_ d_lut_NOR2X1
AINVX1_21 [i_add_term2_61_] _276_ d_lut_INVX1
ANOR2X1_30 [i_add_term1_61_ _276_] _277_ d_lut_NOR2X1
AOAI22X1_5 [_271_ _273_ _275_ _277_] _278_ d_lut_OAI22X1
ANOR2X1_31 [i_add_term2_63_ i_add_term1_63_] _279_ d_lut_NOR2X1
AAND2X2_5 [i_add_term2_63_ i_add_term1_63_] _280_ d_lut_AND2X2
ANOR2X1_32 [_279_ _280_] _281_ d_lut_NOR2X1
AXOR2X1_5 [i_add_term2_62_ i_add_term1_62_] _282_ d_lut_XOR2X1
ANAND2X1_9 [_281_ _282_] _283_ d_lut_NAND2X1
ANOR2X1_33 [_278_ _283_] _45_ d_lut_NOR2X1
AINVX1_22 [_43_] _284_ d_lut_INVX1
ANAND2X1_10 [gnd _45_] _285_ d_lut_NAND2X1
AOAI21X1_5 [_45_ _284_ _285_] w_cout_15_ d_lut_OAI21X1
AINVX1_23 [skip0.cin_next] _289_ d_lut_INVX1
AOR2X2_1 [i_add_term2_4_ i_add_term1_4_] _290_ d_lut_OR2X2
ANAND2X1_11 [i_add_term2_4_ i_add_term1_4_] _291_ d_lut_NAND2X1
ANAND3X1_1 [_289_ _291_ _290_] _292_ d_lut_NAND3X1
ANOR2X1_34 [i_add_term2_4_ i_add_term1_4_] _286_ d_lut_NOR2X1
AAND2X2_6 [i_add_term2_4_ i_add_term1_4_] _287_ d_lut_AND2X2
AOAI21X1_6 [_286_ _287_ skip0.cin_next] _288_ d_lut_OAI21X1
ANAND2X1_12 [_288_ _292_] _0__4_ d_lut_NAND2X1
AOAI21X1_7 [_289_ _286_ _291_] _2__1_ d_lut_OAI21X1
AINVX1_24 [_2__1_] _296_ d_lut_INVX1
AOR2X2_2 [i_add_term2_5_ i_add_term1_5_] _297_ d_lut_OR2X2
ANAND2X1_13 [i_add_term2_5_ i_add_term1_5_] _298_ d_lut_NAND2X1
ANAND3X1_2 [_296_ _298_ _297_] _299_ d_lut_NAND3X1
ANOR2X1_35 [i_add_term2_5_ i_add_term1_5_] _293_ d_lut_NOR2X1
AAND2X2_7 [i_add_term2_5_ i_add_term1_5_] _294_ d_lut_AND2X2
AOAI21X1_8 [_293_ _294_ _2__1_] _295_ d_lut_OAI21X1
ANAND2X1_14 [_295_ _299_] _0__5_ d_lut_NAND2X1
AOAI21X1_9 [_296_ _293_ _298_] _2__2_ d_lut_OAI21X1
AINVX1_25 [_2__2_] _303_ d_lut_INVX1
AOR2X2_3 [i_add_term2_6_ i_add_term1_6_] _304_ d_lut_OR2X2
ANAND2X1_15 [i_add_term2_6_ i_add_term1_6_] _305_ d_lut_NAND2X1
ANAND3X1_3 [_303_ _305_ _304_] _306_ d_lut_NAND3X1
ANOR2X1_36 [i_add_term2_6_ i_add_term1_6_] _300_ d_lut_NOR2X1
AAND2X2_8 [i_add_term2_6_ i_add_term1_6_] _301_ d_lut_AND2X2
AOAI21X1_10 [_300_ _301_ _2__2_] _302_ d_lut_OAI21X1
ANAND2X1_16 [_302_ _306_] _0__6_ d_lut_NAND2X1
AOAI21X1_11 [_303_ _300_ _305_] _2__3_ d_lut_OAI21X1
AINVX1_26 [_2__3_] _310_ d_lut_INVX1
AOR2X2_4 [i_add_term2_7_ i_add_term1_7_] _311_ d_lut_OR2X2
ANAND2X1_17 [i_add_term2_7_ i_add_term1_7_] _312_ d_lut_NAND2X1
ANAND3X1_4 [_310_ _312_ _311_] _313_ d_lut_NAND3X1
ANOR2X1_37 [i_add_term2_7_ i_add_term1_7_] _307_ d_lut_NOR2X1
AAND2X2_9 [i_add_term2_7_ i_add_term1_7_] _308_ d_lut_AND2X2
AOAI21X1_12 [_307_ _308_ _2__3_] _309_ d_lut_OAI21X1
ANAND2X1_18 [_309_ _313_] _0__7_ d_lut_NAND2X1
AOAI21X1_13 [_310_ _307_ _312_] _1_ d_lut_OAI21X1
AINVX1_27 [w_cout_1_] _317_ d_lut_INVX1
AOR2X2_5 [i_add_term2_8_ i_add_term1_8_] _318_ d_lut_OR2X2
ANAND2X1_19 [i_add_term2_8_ i_add_term1_8_] _319_ d_lut_NAND2X1
ANAND3X1_5 [_317_ _319_ _318_] _320_ d_lut_NAND3X1
ANOR2X1_38 [i_add_term2_8_ i_add_term1_8_] _314_ d_lut_NOR2X1
AAND2X2_10 [i_add_term2_8_ i_add_term1_8_] _315_ d_lut_AND2X2
AOAI21X1_14 [_314_ _315_ w_cout_1_] _316_ d_lut_OAI21X1
ANAND2X1_20 [_316_ _320_] _0__8_ d_lut_NAND2X1
AOAI21X1_15 [_317_ _314_ _319_] _5__1_ d_lut_OAI21X1
AINVX1_28 [_5__1_] _324_ d_lut_INVX1
AOR2X2_6 [i_add_term2_9_ i_add_term1_9_] _325_ d_lut_OR2X2
ANAND2X1_21 [i_add_term2_9_ i_add_term1_9_] _326_ d_lut_NAND2X1
ANAND3X1_6 [_324_ _326_ _325_] _327_ d_lut_NAND3X1
ANOR2X1_39 [i_add_term2_9_ i_add_term1_9_] _321_ d_lut_NOR2X1
AAND2X2_11 [i_add_term2_9_ i_add_term1_9_] _322_ d_lut_AND2X2
AOAI21X1_16 [_321_ _322_ _5__1_] _323_ d_lut_OAI21X1
ANAND2X1_22 [_323_ _327_] _0__9_ d_lut_NAND2X1
AOAI21X1_17 [_324_ _321_ _326_] _5__2_ d_lut_OAI21X1
AINVX1_29 [_5__2_] _331_ d_lut_INVX1
AOR2X2_7 [i_add_term2_10_ i_add_term1_10_] _332_ d_lut_OR2X2
ANAND2X1_23 [i_add_term2_10_ i_add_term1_10_] _333_ d_lut_NAND2X1
ANAND3X1_7 [_331_ _333_ _332_] _334_ d_lut_NAND3X1
ANOR2X1_40 [i_add_term2_10_ i_add_term1_10_] _328_ d_lut_NOR2X1
AAND2X2_12 [i_add_term2_10_ i_add_term1_10_] _329_ d_lut_AND2X2
AOAI21X1_18 [_328_ _329_ _5__2_] _330_ d_lut_OAI21X1
ANAND2X1_24 [_330_ _334_] _0__10_ d_lut_NAND2X1
AOAI21X1_19 [_331_ _328_ _333_] _5__3_ d_lut_OAI21X1
AINVX1_30 [_5__3_] _338_ d_lut_INVX1
AOR2X2_8 [i_add_term2_11_ i_add_term1_11_] _339_ d_lut_OR2X2
ANAND2X1_25 [i_add_term2_11_ i_add_term1_11_] _340_ d_lut_NAND2X1
ANAND3X1_8 [_338_ _340_ _339_] _341_ d_lut_NAND3X1
ANOR2X1_41 [i_add_term2_11_ i_add_term1_11_] _335_ d_lut_NOR2X1
AAND2X2_13 [i_add_term2_11_ i_add_term1_11_] _336_ d_lut_AND2X2
AOAI21X1_20 [_335_ _336_ _5__3_] _337_ d_lut_OAI21X1
ANAND2X1_26 [_337_ _341_] _0__11_ d_lut_NAND2X1
AOAI21X1_21 [_338_ _335_ _340_] _4_ d_lut_OAI21X1
AINVX1_31 [w_cout_2_] _345_ d_lut_INVX1
AOR2X2_9 [i_add_term2_12_ i_add_term1_12_] _346_ d_lut_OR2X2
ANAND2X1_27 [i_add_term2_12_ i_add_term1_12_] _347_ d_lut_NAND2X1
ANAND3X1_9 [_345_ _347_ _346_] _348_ d_lut_NAND3X1
ANOR2X1_42 [i_add_term2_12_ i_add_term1_12_] _342_ d_lut_NOR2X1
AAND2X2_14 [i_add_term2_12_ i_add_term1_12_] _343_ d_lut_AND2X2
AOAI21X1_22 [_342_ _343_ w_cout_2_] _344_ d_lut_OAI21X1
ANAND2X1_28 [_344_ _348_] _0__12_ d_lut_NAND2X1
AOAI21X1_23 [_345_ _342_ _347_] _8__1_ d_lut_OAI21X1
AINVX1_32 [_8__1_] _352_ d_lut_INVX1
AOR2X2_10 [i_add_term2_13_ i_add_term1_13_] _353_ d_lut_OR2X2
ANAND2X1_29 [i_add_term2_13_ i_add_term1_13_] _354_ d_lut_NAND2X1
ANAND3X1_10 [_352_ _354_ _353_] _355_ d_lut_NAND3X1
ANOR2X1_43 [i_add_term2_13_ i_add_term1_13_] _349_ d_lut_NOR2X1
AAND2X2_15 [i_add_term2_13_ i_add_term1_13_] _350_ d_lut_AND2X2
AOAI21X1_24 [_349_ _350_ _8__1_] _351_ d_lut_OAI21X1
ANAND2X1_30 [_351_ _355_] _0__13_ d_lut_NAND2X1
AOAI21X1_25 [_352_ _349_ _354_] _8__2_ d_lut_OAI21X1
AINVX1_33 [_8__2_] _359_ d_lut_INVX1
AOR2X2_11 [i_add_term2_14_ i_add_term1_14_] _360_ d_lut_OR2X2
ANAND2X1_31 [i_add_term2_14_ i_add_term1_14_] _361_ d_lut_NAND2X1
ANAND3X1_11 [_359_ _361_ _360_] _362_ d_lut_NAND3X1
ANOR2X1_44 [i_add_term2_14_ i_add_term1_14_] _356_ d_lut_NOR2X1
AAND2X2_16 [i_add_term2_14_ i_add_term1_14_] _357_ d_lut_AND2X2
AOAI21X1_26 [_356_ _357_ _8__2_] _358_ d_lut_OAI21X1
ANAND2X1_32 [_358_ _362_] _0__14_ d_lut_NAND2X1
AOAI21X1_27 [_359_ _356_ _361_] _8__3_ d_lut_OAI21X1
AINVX1_34 [_8__3_] _366_ d_lut_INVX1
AOR2X2_12 [i_add_term2_15_ i_add_term1_15_] _367_ d_lut_OR2X2
ANAND2X1_33 [i_add_term2_15_ i_add_term1_15_] _368_ d_lut_NAND2X1
ANAND3X1_12 [_366_ _368_ _367_] _369_ d_lut_NAND3X1
ANOR2X1_45 [i_add_term2_15_ i_add_term1_15_] _363_ d_lut_NOR2X1
AAND2X2_17 [i_add_term2_15_ i_add_term1_15_] _364_ d_lut_AND2X2
AOAI21X1_28 [_363_ _364_ _8__3_] _365_ d_lut_OAI21X1
ANAND2X1_34 [_365_ _369_] _0__15_ d_lut_NAND2X1
AOAI21X1_29 [_366_ _363_ _368_] _7_ d_lut_OAI21X1
AINVX1_35 [w_cout_3_] _373_ d_lut_INVX1
AOR2X2_13 [i_add_term2_16_ i_add_term1_16_] _374_ d_lut_OR2X2
ANAND2X1_35 [i_add_term2_16_ i_add_term1_16_] _375_ d_lut_NAND2X1
ANAND3X1_13 [_373_ _375_ _374_] _376_ d_lut_NAND3X1
ANOR2X1_46 [i_add_term2_16_ i_add_term1_16_] _370_ d_lut_NOR2X1
AAND2X2_18 [i_add_term2_16_ i_add_term1_16_] _371_ d_lut_AND2X2
AOAI21X1_30 [_370_ _371_ w_cout_3_] _372_ d_lut_OAI21X1
ANAND2X1_36 [_372_ _376_] _0__16_ d_lut_NAND2X1
AOAI21X1_31 [_373_ _370_ _375_] _11__1_ d_lut_OAI21X1
AINVX1_36 [_11__1_] _380_ d_lut_INVX1
AOR2X2_14 [i_add_term2_17_ i_add_term1_17_] _381_ d_lut_OR2X2
ANAND2X1_37 [i_add_term2_17_ i_add_term1_17_] _382_ d_lut_NAND2X1
ANAND3X1_14 [_380_ _382_ _381_] _383_ d_lut_NAND3X1
ANOR2X1_47 [i_add_term2_17_ i_add_term1_17_] _377_ d_lut_NOR2X1
AAND2X2_19 [i_add_term2_17_ i_add_term1_17_] _378_ d_lut_AND2X2
AOAI21X1_32 [_377_ _378_ _11__1_] _379_ d_lut_OAI21X1
ANAND2X1_38 [_379_ _383_] _0__17_ d_lut_NAND2X1
AOAI21X1_33 [_380_ _377_ _382_] _11__2_ d_lut_OAI21X1
AINVX1_37 [_11__2_] _387_ d_lut_INVX1
AOR2X2_15 [i_add_term2_18_ i_add_term1_18_] _388_ d_lut_OR2X2
ANAND2X1_39 [i_add_term2_18_ i_add_term1_18_] _389_ d_lut_NAND2X1
ANAND3X1_15 [_387_ _389_ _388_] _390_ d_lut_NAND3X1
ANOR2X1_48 [i_add_term2_18_ i_add_term1_18_] _384_ d_lut_NOR2X1
AAND2X2_20 [i_add_term2_18_ i_add_term1_18_] _385_ d_lut_AND2X2
AOAI21X1_34 [_384_ _385_ _11__2_] _386_ d_lut_OAI21X1
ANAND2X1_40 [_386_ _390_] _0__18_ d_lut_NAND2X1
AOAI21X1_35 [_387_ _384_ _389_] _11__3_ d_lut_OAI21X1
AINVX1_38 [_11__3_] _394_ d_lut_INVX1
AOR2X2_16 [i_add_term2_19_ i_add_term1_19_] _395_ d_lut_OR2X2
ANAND2X1_41 [i_add_term2_19_ i_add_term1_19_] _396_ d_lut_NAND2X1
ANAND3X1_16 [_394_ _396_ _395_] _397_ d_lut_NAND3X1
ANOR2X1_49 [i_add_term2_19_ i_add_term1_19_] _391_ d_lut_NOR2X1
AAND2X2_21 [i_add_term2_19_ i_add_term1_19_] _392_ d_lut_AND2X2
AOAI21X1_36 [_391_ _392_ _11__3_] _393_ d_lut_OAI21X1
ANAND2X1_42 [_393_ _397_] _0__19_ d_lut_NAND2X1
AOAI21X1_37 [_394_ _391_ _396_] _10_ d_lut_OAI21X1
AINVX1_39 [w_cout_4_] _401_ d_lut_INVX1
AOR2X2_17 [i_add_term2_20_ i_add_term1_20_] _402_ d_lut_OR2X2
ANAND2X1_43 [i_add_term2_20_ i_add_term1_20_] _403_ d_lut_NAND2X1
ANAND3X1_17 [_401_ _403_ _402_] _404_ d_lut_NAND3X1
ANOR2X1_50 [i_add_term2_20_ i_add_term1_20_] _398_ d_lut_NOR2X1
AAND2X2_22 [i_add_term2_20_ i_add_term1_20_] _399_ d_lut_AND2X2
AOAI21X1_38 [_398_ _399_ w_cout_4_] _400_ d_lut_OAI21X1
ANAND2X1_44 [_400_ _404_] _0__20_ d_lut_NAND2X1
AOAI21X1_39 [_401_ _398_ _403_] _14__1_ d_lut_OAI21X1
AINVX1_40 [_14__1_] _408_ d_lut_INVX1
AOR2X2_18 [i_add_term2_21_ i_add_term1_21_] _409_ d_lut_OR2X2
ANAND2X1_45 [i_add_term2_21_ i_add_term1_21_] _410_ d_lut_NAND2X1
ANAND3X1_18 [_408_ _410_ _409_] _411_ d_lut_NAND3X1
ANOR2X1_51 [i_add_term2_21_ i_add_term1_21_] _405_ d_lut_NOR2X1
AAND2X2_23 [i_add_term2_21_ i_add_term1_21_] _406_ d_lut_AND2X2
AOAI21X1_40 [_405_ _406_ _14__1_] _407_ d_lut_OAI21X1
ANAND2X1_46 [_407_ _411_] _0__21_ d_lut_NAND2X1
AOAI21X1_41 [_408_ _405_ _410_] _14__2_ d_lut_OAI21X1
AINVX1_41 [_14__2_] _415_ d_lut_INVX1
AOR2X2_19 [i_add_term2_22_ i_add_term1_22_] _416_ d_lut_OR2X2
ANAND2X1_47 [i_add_term2_22_ i_add_term1_22_] _417_ d_lut_NAND2X1
ANAND3X1_19 [_415_ _417_ _416_] _418_ d_lut_NAND3X1
ANOR2X1_52 [i_add_term2_22_ i_add_term1_22_] _412_ d_lut_NOR2X1
AAND2X2_24 [i_add_term2_22_ i_add_term1_22_] _413_ d_lut_AND2X2
AOAI21X1_42 [_412_ _413_ _14__2_] _414_ d_lut_OAI21X1
ANAND2X1_48 [_414_ _418_] _0__22_ d_lut_NAND2X1
AOAI21X1_43 [_415_ _412_ _417_] _14__3_ d_lut_OAI21X1
AINVX1_42 [_14__3_] _422_ d_lut_INVX1
AOR2X2_20 [i_add_term2_23_ i_add_term1_23_] _423_ d_lut_OR2X2
ANAND2X1_49 [i_add_term2_23_ i_add_term1_23_] _424_ d_lut_NAND2X1
ANAND3X1_20 [_422_ _424_ _423_] _425_ d_lut_NAND3X1
ANOR2X1_53 [i_add_term2_23_ i_add_term1_23_] _419_ d_lut_NOR2X1
AAND2X2_25 [i_add_term2_23_ i_add_term1_23_] _420_ d_lut_AND2X2
AOAI21X1_44 [_419_ _420_ _14__3_] _421_ d_lut_OAI21X1
ANAND2X1_50 [_421_ _425_] _0__23_ d_lut_NAND2X1
AOAI21X1_45 [_422_ _419_ _424_] _13_ d_lut_OAI21X1
AINVX1_43 [w_cout_5_] _429_ d_lut_INVX1
AOR2X2_21 [i_add_term2_24_ i_add_term1_24_] _430_ d_lut_OR2X2
ANAND2X1_51 [i_add_term2_24_ i_add_term1_24_] _431_ d_lut_NAND2X1
ANAND3X1_21 [_429_ _431_ _430_] _432_ d_lut_NAND3X1
ANOR2X1_54 [i_add_term2_24_ i_add_term1_24_] _426_ d_lut_NOR2X1
AAND2X2_26 [i_add_term2_24_ i_add_term1_24_] _427_ d_lut_AND2X2
AOAI21X1_46 [_426_ _427_ w_cout_5_] _428_ d_lut_OAI21X1
ANAND2X1_52 [_428_ _432_] _0__24_ d_lut_NAND2X1
AOAI21X1_47 [_429_ _426_ _431_] _17__1_ d_lut_OAI21X1
AINVX1_44 [_17__1_] _436_ d_lut_INVX1
AOR2X2_22 [i_add_term2_25_ i_add_term1_25_] _437_ d_lut_OR2X2
ANAND2X1_53 [i_add_term2_25_ i_add_term1_25_] _438_ d_lut_NAND2X1
ANAND3X1_22 [_436_ _438_ _437_] _439_ d_lut_NAND3X1
ANOR2X1_55 [i_add_term2_25_ i_add_term1_25_] _433_ d_lut_NOR2X1
AAND2X2_27 [i_add_term2_25_ i_add_term1_25_] _434_ d_lut_AND2X2
AOAI21X1_48 [_433_ _434_ _17__1_] _435_ d_lut_OAI21X1
ANAND2X1_54 [_435_ _439_] _0__25_ d_lut_NAND2X1
AOAI21X1_49 [_436_ _433_ _438_] _17__2_ d_lut_OAI21X1
AINVX1_45 [_17__2_] _443_ d_lut_INVX1
AOR2X2_23 [i_add_term2_26_ i_add_term1_26_] _444_ d_lut_OR2X2
ANAND2X1_55 [i_add_term2_26_ i_add_term1_26_] _445_ d_lut_NAND2X1
ANAND3X1_23 [_443_ _445_ _444_] _446_ d_lut_NAND3X1
ANOR2X1_56 [i_add_term2_26_ i_add_term1_26_] _440_ d_lut_NOR2X1
AAND2X2_28 [i_add_term2_26_ i_add_term1_26_] _441_ d_lut_AND2X2
AOAI21X1_50 [_440_ _441_ _17__2_] _442_ d_lut_OAI21X1
ANAND2X1_56 [_442_ _446_] _0__26_ d_lut_NAND2X1
AOAI21X1_51 [_443_ _440_ _445_] _17__3_ d_lut_OAI21X1
AINVX1_46 [_17__3_] _450_ d_lut_INVX1
AOR2X2_24 [i_add_term2_27_ i_add_term1_27_] _451_ d_lut_OR2X2
ANAND2X1_57 [i_add_term2_27_ i_add_term1_27_] _452_ d_lut_NAND2X1
ANAND3X1_24 [_450_ _452_ _451_] _453_ d_lut_NAND3X1
ANOR2X1_57 [i_add_term2_27_ i_add_term1_27_] _447_ d_lut_NOR2X1
AAND2X2_29 [i_add_term2_27_ i_add_term1_27_] _448_ d_lut_AND2X2
AOAI21X1_52 [_447_ _448_ _17__3_] _449_ d_lut_OAI21X1
ANAND2X1_58 [_449_ _453_] _0__27_ d_lut_NAND2X1
AOAI21X1_53 [_450_ _447_ _452_] _16_ d_lut_OAI21X1
AINVX1_47 [w_cout_6_] _457_ d_lut_INVX1
AOR2X2_25 [i_add_term2_28_ i_add_term1_28_] _458_ d_lut_OR2X2
ANAND2X1_59 [i_add_term2_28_ i_add_term1_28_] _459_ d_lut_NAND2X1
ANAND3X1_25 [_457_ _459_ _458_] _460_ d_lut_NAND3X1
ANOR2X1_58 [i_add_term2_28_ i_add_term1_28_] _454_ d_lut_NOR2X1
AAND2X2_30 [i_add_term2_28_ i_add_term1_28_] _455_ d_lut_AND2X2
AOAI21X1_54 [_454_ _455_ w_cout_6_] _456_ d_lut_OAI21X1
ANAND2X1_60 [_456_ _460_] _0__28_ d_lut_NAND2X1
AOAI21X1_55 [_457_ _454_ _459_] _20__1_ d_lut_OAI21X1
AINVX1_48 [_20__1_] _464_ d_lut_INVX1
AOR2X2_26 [i_add_term2_29_ i_add_term1_29_] _465_ d_lut_OR2X2
ANAND2X1_61 [i_add_term2_29_ i_add_term1_29_] _466_ d_lut_NAND2X1
ANAND3X1_26 [_464_ _466_ _465_] _467_ d_lut_NAND3X1
ANOR2X1_59 [i_add_term2_29_ i_add_term1_29_] _461_ d_lut_NOR2X1
AAND2X2_31 [i_add_term2_29_ i_add_term1_29_] _462_ d_lut_AND2X2
AOAI21X1_56 [_461_ _462_ _20__1_] _463_ d_lut_OAI21X1
ANAND2X1_62 [_463_ _467_] _0__29_ d_lut_NAND2X1
AOAI21X1_57 [_464_ _461_ _466_] _20__2_ d_lut_OAI21X1
AINVX1_49 [_20__2_] _471_ d_lut_INVX1
AOR2X2_27 [i_add_term2_30_ i_add_term1_30_] _472_ d_lut_OR2X2
ANAND2X1_63 [i_add_term2_30_ i_add_term1_30_] _473_ d_lut_NAND2X1
ANAND3X1_27 [_471_ _473_ _472_] _474_ d_lut_NAND3X1
ANOR2X1_60 [i_add_term2_30_ i_add_term1_30_] _468_ d_lut_NOR2X1
AAND2X2_32 [i_add_term2_30_ i_add_term1_30_] _469_ d_lut_AND2X2
AOAI21X1_58 [_468_ _469_ _20__2_] _470_ d_lut_OAI21X1
ANAND2X1_64 [_470_ _474_] _0__30_ d_lut_NAND2X1
AOAI21X1_59 [_471_ _468_ _473_] _20__3_ d_lut_OAI21X1
AINVX1_50 [_20__3_] _478_ d_lut_INVX1
AOR2X2_28 [i_add_term2_31_ i_add_term1_31_] _479_ d_lut_OR2X2
ANAND2X1_65 [i_add_term2_31_ i_add_term1_31_] _480_ d_lut_NAND2X1
ANAND3X1_28 [_478_ _480_ _479_] _481_ d_lut_NAND3X1
ANOR2X1_61 [i_add_term2_31_ i_add_term1_31_] _475_ d_lut_NOR2X1
AAND2X2_33 [i_add_term2_31_ i_add_term1_31_] _476_ d_lut_AND2X2
AOAI21X1_60 [_475_ _476_ _20__3_] _477_ d_lut_OAI21X1
ANAND2X1_66 [_477_ _481_] _0__31_ d_lut_NAND2X1
AOAI21X1_61 [_478_ _475_ _480_] _19_ d_lut_OAI21X1
AINVX1_51 [w_cout_7_] _485_ d_lut_INVX1
AOR2X2_29 [i_add_term2_32_ i_add_term1_32_] _486_ d_lut_OR2X2
ANAND2X1_67 [i_add_term2_32_ i_add_term1_32_] _487_ d_lut_NAND2X1
ANAND3X1_29 [_485_ _487_ _486_] _488_ d_lut_NAND3X1
ANOR2X1_62 [i_add_term2_32_ i_add_term1_32_] _482_ d_lut_NOR2X1
AAND2X2_34 [i_add_term2_32_ i_add_term1_32_] _483_ d_lut_AND2X2
AOAI21X1_62 [_482_ _483_ w_cout_7_] _484_ d_lut_OAI21X1
ANAND2X1_68 [_484_ _488_] _0__32_ d_lut_NAND2X1
AOAI21X1_63 [_485_ _482_ _487_] _23__1_ d_lut_OAI21X1
AINVX1_52 [_23__1_] _492_ d_lut_INVX1
AOR2X2_30 [i_add_term2_33_ i_add_term1_33_] _493_ d_lut_OR2X2
ANAND2X1_69 [i_add_term2_33_ i_add_term1_33_] _494_ d_lut_NAND2X1
ANAND3X1_30 [_492_ _494_ _493_] _495_ d_lut_NAND3X1
ANOR2X1_63 [i_add_term2_33_ i_add_term1_33_] _489_ d_lut_NOR2X1
AAND2X2_35 [i_add_term2_33_ i_add_term1_33_] _490_ d_lut_AND2X2
AOAI21X1_64 [_489_ _490_ _23__1_] _491_ d_lut_OAI21X1
ANAND2X1_70 [_491_ _495_] _0__33_ d_lut_NAND2X1
AOAI21X1_65 [_492_ _489_ _494_] _23__2_ d_lut_OAI21X1
AINVX1_53 [_23__2_] _499_ d_lut_INVX1
AOR2X2_31 [i_add_term2_34_ i_add_term1_34_] _500_ d_lut_OR2X2
ANAND2X1_71 [i_add_term2_34_ i_add_term1_34_] _501_ d_lut_NAND2X1
ANAND3X1_31 [_499_ _501_ _500_] _502_ d_lut_NAND3X1
ANOR2X1_64 [i_add_term2_34_ i_add_term1_34_] _496_ d_lut_NOR2X1
AAND2X2_36 [i_add_term2_34_ i_add_term1_34_] _497_ d_lut_AND2X2
AOAI21X1_66 [_496_ _497_ _23__2_] _498_ d_lut_OAI21X1
ANAND2X1_72 [_498_ _502_] _0__34_ d_lut_NAND2X1
AOAI21X1_67 [_499_ _496_ _501_] _23__3_ d_lut_OAI21X1
AINVX1_54 [_23__3_] _506_ d_lut_INVX1
AOR2X2_32 [i_add_term2_35_ i_add_term1_35_] _507_ d_lut_OR2X2
ANAND2X1_73 [i_add_term2_35_ i_add_term1_35_] _508_ d_lut_NAND2X1
ANAND3X1_32 [_506_ _508_ _507_] _509_ d_lut_NAND3X1
ANOR2X1_65 [i_add_term2_35_ i_add_term1_35_] _503_ d_lut_NOR2X1
AAND2X2_37 [i_add_term2_35_ i_add_term1_35_] _504_ d_lut_AND2X2
AOAI21X1_68 [_503_ _504_ _23__3_] _505_ d_lut_OAI21X1
ANAND2X1_74 [_505_ _509_] _0__35_ d_lut_NAND2X1
AOAI21X1_69 [_506_ _503_ _508_] _22_ d_lut_OAI21X1
AINVX1_55 [w_cout_8_] _513_ d_lut_INVX1
AOR2X2_33 [i_add_term2_36_ i_add_term1_36_] _514_ d_lut_OR2X2
ANAND2X1_75 [i_add_term2_36_ i_add_term1_36_] _515_ d_lut_NAND2X1
ANAND3X1_33 [_513_ _515_ _514_] _516_ d_lut_NAND3X1
ANOR2X1_66 [i_add_term2_36_ i_add_term1_36_] _510_ d_lut_NOR2X1
AAND2X2_38 [i_add_term2_36_ i_add_term1_36_] _511_ d_lut_AND2X2
AOAI21X1_70 [_510_ _511_ w_cout_8_] _512_ d_lut_OAI21X1
ANAND2X1_76 [_512_ _516_] _0__36_ d_lut_NAND2X1
AOAI21X1_71 [_513_ _510_ _515_] _26__1_ d_lut_OAI21X1
AINVX1_56 [_26__1_] _520_ d_lut_INVX1
AOR2X2_34 [i_add_term2_37_ i_add_term1_37_] _521_ d_lut_OR2X2
ANAND2X1_77 [i_add_term2_37_ i_add_term1_37_] _522_ d_lut_NAND2X1
ANAND3X1_34 [_520_ _522_ _521_] _523_ d_lut_NAND3X1
ANOR2X1_67 [i_add_term2_37_ i_add_term1_37_] _517_ d_lut_NOR2X1
AAND2X2_39 [i_add_term2_37_ i_add_term1_37_] _518_ d_lut_AND2X2
AOAI21X1_72 [_517_ _518_ _26__1_] _519_ d_lut_OAI21X1
ANAND2X1_78 [_519_ _523_] _0__37_ d_lut_NAND2X1
AOAI21X1_73 [_520_ _517_ _522_] _26__2_ d_lut_OAI21X1
AINVX1_57 [_26__2_] _527_ d_lut_INVX1
AOR2X2_35 [i_add_term2_38_ i_add_term1_38_] _528_ d_lut_OR2X2
ANAND2X1_79 [i_add_term2_38_ i_add_term1_38_] _529_ d_lut_NAND2X1
ANAND3X1_35 [_527_ _529_ _528_] _530_ d_lut_NAND3X1
ANOR2X1_68 [i_add_term2_38_ i_add_term1_38_] _524_ d_lut_NOR2X1
AAND2X2_40 [i_add_term2_38_ i_add_term1_38_] _525_ d_lut_AND2X2
AOAI21X1_74 [_524_ _525_ _26__2_] _526_ d_lut_OAI21X1
ANAND2X1_80 [_526_ _530_] _0__38_ d_lut_NAND2X1
AOAI21X1_75 [_527_ _524_ _529_] _26__3_ d_lut_OAI21X1
AINVX1_58 [_26__3_] _534_ d_lut_INVX1
AOR2X2_36 [i_add_term2_39_ i_add_term1_39_] _535_ d_lut_OR2X2
ANAND2X1_81 [i_add_term2_39_ i_add_term1_39_] _536_ d_lut_NAND2X1
ANAND3X1_36 [_534_ _536_ _535_] _537_ d_lut_NAND3X1
ANOR2X1_69 [i_add_term2_39_ i_add_term1_39_] _531_ d_lut_NOR2X1
AAND2X2_41 [i_add_term2_39_ i_add_term1_39_] _532_ d_lut_AND2X2
AOAI21X1_76 [_531_ _532_ _26__3_] _533_ d_lut_OAI21X1
ANAND2X1_82 [_533_ _537_] _0__39_ d_lut_NAND2X1
AOAI21X1_77 [_534_ _531_ _536_] _25_ d_lut_OAI21X1
AINVX1_59 [w_cout_9_] _541_ d_lut_INVX1
AOR2X2_37 [i_add_term2_40_ i_add_term1_40_] _542_ d_lut_OR2X2
ANAND2X1_83 [i_add_term2_40_ i_add_term1_40_] _543_ d_lut_NAND2X1
ANAND3X1_37 [_541_ _543_ _542_] _544_ d_lut_NAND3X1
ANOR2X1_70 [i_add_term2_40_ i_add_term1_40_] _538_ d_lut_NOR2X1
AAND2X2_42 [i_add_term2_40_ i_add_term1_40_] _539_ d_lut_AND2X2
AOAI21X1_78 [_538_ _539_ w_cout_9_] _540_ d_lut_OAI21X1
ANAND2X1_84 [_540_ _544_] _0__40_ d_lut_NAND2X1
AOAI21X1_79 [_541_ _538_ _543_] _29__1_ d_lut_OAI21X1
AINVX1_60 [_29__1_] _548_ d_lut_INVX1
AOR2X2_38 [i_add_term2_41_ i_add_term1_41_] _549_ d_lut_OR2X2
ANAND2X1_85 [i_add_term2_41_ i_add_term1_41_] _550_ d_lut_NAND2X1
ANAND3X1_38 [_548_ _550_ _549_] _551_ d_lut_NAND3X1
ANOR2X1_71 [i_add_term2_41_ i_add_term1_41_] _545_ d_lut_NOR2X1
AAND2X2_43 [i_add_term2_41_ i_add_term1_41_] _546_ d_lut_AND2X2
AOAI21X1_80 [_545_ _546_ _29__1_] _547_ d_lut_OAI21X1
ANAND2X1_86 [_547_ _551_] _0__41_ d_lut_NAND2X1
AOAI21X1_81 [_548_ _545_ _550_] _29__2_ d_lut_OAI21X1
AINVX1_61 [_29__2_] _555_ d_lut_INVX1
AOR2X2_39 [i_add_term2_42_ i_add_term1_42_] _556_ d_lut_OR2X2
ANAND2X1_87 [i_add_term2_42_ i_add_term1_42_] _557_ d_lut_NAND2X1
ANAND3X1_39 [_555_ _557_ _556_] _558_ d_lut_NAND3X1
ANOR2X1_72 [i_add_term2_42_ i_add_term1_42_] _552_ d_lut_NOR2X1
AAND2X2_44 [i_add_term2_42_ i_add_term1_42_] _553_ d_lut_AND2X2
AOAI21X1_82 [_552_ _553_ _29__2_] _554_ d_lut_OAI21X1
ANAND2X1_88 [_554_ _558_] _0__42_ d_lut_NAND2X1
AOAI21X1_83 [_555_ _552_ _557_] _29__3_ d_lut_OAI21X1
AINVX1_62 [_29__3_] _562_ d_lut_INVX1
AOR2X2_40 [i_add_term2_43_ i_add_term1_43_] _563_ d_lut_OR2X2
ANAND2X1_89 [i_add_term2_43_ i_add_term1_43_] _564_ d_lut_NAND2X1
ANAND3X1_40 [_562_ _564_ _563_] _565_ d_lut_NAND3X1
ANOR2X1_73 [i_add_term2_43_ i_add_term1_43_] _559_ d_lut_NOR2X1
AAND2X2_45 [i_add_term2_43_ i_add_term1_43_] _560_ d_lut_AND2X2
AOAI21X1_84 [_559_ _560_ _29__3_] _561_ d_lut_OAI21X1
ANAND2X1_90 [_561_ _565_] _0__43_ d_lut_NAND2X1
AOAI21X1_85 [_562_ _559_ _564_] _28_ d_lut_OAI21X1
AINVX1_63 [w_cout_10_] _569_ d_lut_INVX1
AOR2X2_41 [i_add_term2_44_ i_add_term1_44_] _570_ d_lut_OR2X2
ANAND2X1_91 [i_add_term2_44_ i_add_term1_44_] _571_ d_lut_NAND2X1
ANAND3X1_41 [_569_ _571_ _570_] _572_ d_lut_NAND3X1
ANOR2X1_74 [i_add_term2_44_ i_add_term1_44_] _566_ d_lut_NOR2X1
AAND2X2_46 [i_add_term2_44_ i_add_term1_44_] _567_ d_lut_AND2X2
AOAI21X1_86 [_566_ _567_ w_cout_10_] _568_ d_lut_OAI21X1
ANAND2X1_92 [_568_ _572_] _0__44_ d_lut_NAND2X1
AOAI21X1_87 [_569_ _566_ _571_] _32__1_ d_lut_OAI21X1
AINVX1_64 [_32__1_] _576_ d_lut_INVX1
AOR2X2_42 [i_add_term2_45_ i_add_term1_45_] _577_ d_lut_OR2X2
ANAND2X1_93 [i_add_term2_45_ i_add_term1_45_] _578_ d_lut_NAND2X1
ANAND3X1_42 [_576_ _578_ _577_] _579_ d_lut_NAND3X1
ANOR2X1_75 [i_add_term2_45_ i_add_term1_45_] _573_ d_lut_NOR2X1
AAND2X2_47 [i_add_term2_45_ i_add_term1_45_] _574_ d_lut_AND2X2
AOAI21X1_88 [_573_ _574_ _32__1_] _575_ d_lut_OAI21X1
ANAND2X1_94 [_575_ _579_] _0__45_ d_lut_NAND2X1
AOAI21X1_89 [_576_ _573_ _578_] _32__2_ d_lut_OAI21X1
AINVX1_65 [_32__2_] _583_ d_lut_INVX1
AOR2X2_43 [i_add_term2_46_ i_add_term1_46_] _584_ d_lut_OR2X2
ANAND2X1_95 [i_add_term2_46_ i_add_term1_46_] _585_ d_lut_NAND2X1
ANAND3X1_43 [_583_ _585_ _584_] _586_ d_lut_NAND3X1
ANOR2X1_76 [i_add_term2_46_ i_add_term1_46_] _580_ d_lut_NOR2X1
AAND2X2_48 [i_add_term2_46_ i_add_term1_46_] _581_ d_lut_AND2X2
AOAI21X1_90 [_580_ _581_ _32__2_] _582_ d_lut_OAI21X1
ANAND2X1_96 [_582_ _586_] _0__46_ d_lut_NAND2X1
AOAI21X1_91 [_583_ _580_ _585_] _32__3_ d_lut_OAI21X1
AINVX1_66 [_32__3_] _590_ d_lut_INVX1
AOR2X2_44 [i_add_term2_47_ i_add_term1_47_] _591_ d_lut_OR2X2
ANAND2X1_97 [i_add_term2_47_ i_add_term1_47_] _592_ d_lut_NAND2X1
ANAND3X1_44 [_590_ _592_ _591_] _593_ d_lut_NAND3X1
ANOR2X1_77 [i_add_term2_47_ i_add_term1_47_] _587_ d_lut_NOR2X1
AAND2X2_49 [i_add_term2_47_ i_add_term1_47_] _588_ d_lut_AND2X2
AOAI21X1_92 [_587_ _588_ _32__3_] _589_ d_lut_OAI21X1
ANAND2X1_98 [_589_ _593_] _0__47_ d_lut_NAND2X1
AOAI21X1_93 [_590_ _587_ _592_] _31_ d_lut_OAI21X1
AINVX1_67 [w_cout_11_] _597_ d_lut_INVX1
AOR2X2_45 [i_add_term2_48_ i_add_term1_48_] _598_ d_lut_OR2X2
ANAND2X1_99 [i_add_term2_48_ i_add_term1_48_] _599_ d_lut_NAND2X1
ANAND3X1_45 [_597_ _599_ _598_] _600_ d_lut_NAND3X1
ANOR2X1_78 [i_add_term2_48_ i_add_term1_48_] _594_ d_lut_NOR2X1
AAND2X2_50 [i_add_term2_48_ i_add_term1_48_] _595_ d_lut_AND2X2
AOAI21X1_94 [_594_ _595_ w_cout_11_] _596_ d_lut_OAI21X1
ANAND2X1_100 [_596_ _600_] _0__48_ d_lut_NAND2X1
AOAI21X1_95 [_597_ _594_ _599_] _35__1_ d_lut_OAI21X1
AINVX1_68 [_35__1_] _604_ d_lut_INVX1
AOR2X2_46 [i_add_term2_49_ i_add_term1_49_] _605_ d_lut_OR2X2