*SPICE netlist created from BLIF module CSkipA_61bit by blif2BSpice
.include /usr/local/share/qflow/tech/osu035/osu035_stdcells.sp
.subckt CSkipA_61bit vdd gnd i_add_term1[0] i_add_term1[1] i_add_term1[2] i_add_term1[3] i_add_term1[4] i_add_term1[5] i_add_term1[6] i_add_term1[7] i_add_term1[8] i_add_term1[9] i_add_term1[10] i_add_term1[11] i_add_term1[12] i_add_term1[13] i_add_term1[14] i_add_term1[15] i_add_term1[16] i_add_term1[17] i_add_term1[18] i_add_term1[19] i_add_term1[20] i_add_term1[21] i_add_term1[22] i_add_term1[23] i_add_term1[24] i_add_term1[25] i_add_term1[26] i_add_term1[27] i_add_term1[28] i_add_term1[29] i_add_term1[30] i_add_term1[31] i_add_term1[32] i_add_term1[33] i_add_term1[34] i_add_term1[35] i_add_term1[36] i_add_term1[37] i_add_term1[38] i_add_term1[39] i_add_term1[40] i_add_term1[41] i_add_term1[42] i_add_term1[43] i_add_term1[44] i_add_term1[45] i_add_term1[46] i_add_term1[47] i_add_term1[48] i_add_term1[49] i_add_term1[50] i_add_term1[51] i_add_term1[52] i_add_term1[53] i_add_term1[54] i_add_term1[55] i_add_term1[56] i_add_term1[57] i_add_term1[58] i_add_term1[59] i_add_term1[60] i_add_term2[0] i_add_term2[1] i_add_term2[2] i_add_term2[3] i_add_term2[4] i_add_term2[5] i_add_term2[6] i_add_term2[7] i_add_term2[8] i_add_term2[9] i_add_term2[10] i_add_term2[11] i_add_term2[12] i_add_term2[13] i_add_term2[14] i_add_term2[15] i_add_term2[16] i_add_term2[17] i_add_term2[18] i_add_term2[19] i_add_term2[20] i_add_term2[21] i_add_term2[22] i_add_term2[23] i_add_term2[24] i_add_term2[25] i_add_term2[26] i_add_term2[27] i_add_term2[28] i_add_term2[29] i_add_term2[30] i_add_term2[31] i_add_term2[32] i_add_term2[33] i_add_term2[34] i_add_term2[35] i_add_term2[36] i_add_term2[37] i_add_term2[38] i_add_term2[39] i_add_term2[40] i_add_term2[41] i_add_term2[42] i_add_term2[43] i_add_term2[44] i_add_term2[45] i_add_term2[46] i_add_term2[47] i_add_term2[48] i_add_term2[49] i_add_term2[50] i_add_term2[51] i_add_term2[52] i_add_term2[53] i_add_term2[54] i_add_term2[55] i_add_term2[56] i_add_term2[57] i_add_term2[58] i_add_term2[59] i_add_term2[60] sum[0] sum[1] sum[2] sum[3] sum[4] sum[5] sum[6] sum[7] sum[8] sum[9] sum[10] sum[11] sum[12] sum[13] sum[14] sum[15] sum[16] sum[17] sum[18] sum[19] sum[20] sum[21] sum[22] sum[23] sum[24] sum[25] sum[26] sum[27] sum[28] sum[29] sum[30] sum[31] sum[32] sum[33] sum[34] sum[35] sum[36] sum[37] sum[38] sum[39] sum[40] sum[41] sum[42] sum[43] sum[44] sum[45] sum[46] sum[47] sum[48] sum[49] sum[50] sum[51] sum[52] sum[53] sum[54] sum[55] sum[56] sum[57] sum[58] sum[59] sum[60] cout 
XNOR2X1_1 vdd _235_ gnd _36_ _230_ NOR2X1
XINVX1_1 _34_ _236_ vdd gnd INVX1
XNAND2X1_1 vdd _237_ gnd gnd _36_ NAND2X1
XOAI21X1_1 gnd vdd _36_ _236_ w_cout[12] _237_ OAI21X1
XINVX1_2 i_add_term1[48] _238_ vdd gnd INVX1
XNOR2X1_2 vdd _238_ gnd _239_ i_add_term2[48] NOR2X1
XINVX1_3 i_add_term2[48] _240_ vdd gnd INVX1
XNOR2X1_3 vdd _240_ gnd _241_ i_add_term1[48] NOR2X1
XINVX1_4 i_add_term1[49] _242_ vdd gnd INVX1
XNOR2X1_4 vdd _242_ gnd _243_ i_add_term2[49] NOR2X1
XINVX1_5 i_add_term2[49] _244_ vdd gnd INVX1
XNOR2X1_5 vdd _244_ gnd _245_ i_add_term1[49] NOR2X1
XOAI22X1_1 gnd vdd _245_ _243_ _239_ _241_ _246_ OAI22X1
XNOR2X1_6 vdd i_add_term1[51] gnd _247_ i_add_term2[51] NOR2X1
XAND2X2_1 vdd gnd i_add_term2[51] i_add_term1[51] _248_ AND2X2
XNOR2X1_7 vdd _248_ gnd _249_ _247_ NOR2X1
XXOR2X1_1 _250_ vdd i_add_term1[50] i_add_term2[50] gnd XOR2X1
XNAND2X1_2 vdd _251_ gnd _249_ _250_ NAND2X1
XNOR2X1_8 vdd _251_ gnd _39_ _246_ NOR2X1
XINVX1_6 _37_ _252_ vdd gnd INVX1
XNAND2X1_3 vdd _253_ gnd gnd _39_ NAND2X1
XOAI21X1_2 gnd vdd _39_ _252_ w_cout[13] _253_ OAI21X1
XINVX1_7 i_add_term1[52] _254_ vdd gnd INVX1
XNOR2X1_9 vdd _254_ gnd _255_ i_add_term2[52] NOR2X1
XINVX1_8 i_add_term2[52] _256_ vdd gnd INVX1
XNOR2X1_10 vdd _256_ gnd _257_ i_add_term1[52] NOR2X1
XINVX1_9 i_add_term1[53] _258_ vdd gnd INVX1
XNOR2X1_11 vdd _258_ gnd _259_ i_add_term2[53] NOR2X1
XINVX1_10 i_add_term2[53] _260_ vdd gnd INVX1
XNOR2X1_12 vdd _260_ gnd _261_ i_add_term1[53] NOR2X1
XOAI22X1_2 gnd vdd _261_ _259_ _255_ _257_ _262_ OAI22X1
XNOR2X1_13 vdd i_add_term1[55] gnd _263_ i_add_term2[55] NOR2X1
XAND2X2_2 vdd gnd i_add_term2[55] i_add_term1[55] _264_ AND2X2
XNOR2X1_14 vdd _264_ gnd _265_ _263_ NOR2X1
XXOR2X1_2 _266_ vdd i_add_term1[54] i_add_term2[54] gnd XOR2X1
XNAND2X1_4 vdd _267_ gnd _265_ _266_ NAND2X1
XNOR2X1_15 vdd _267_ gnd _42_ _262_ NOR2X1
XINVX1_11 _40_ _268_ vdd gnd INVX1
XNAND2X1_5 vdd _269_ gnd gnd _42_ NAND2X1
XOAI21X1_3 gnd vdd _42_ _268_ w_cout[14] _269_ OAI21X1
XINVX1_12 i_add_term1[56] _270_ vdd gnd INVX1
XNOR2X1_16 vdd _270_ gnd _271_ i_add_term2[56] NOR2X1
XINVX1_13 i_add_term2[56] _272_ vdd gnd INVX1
XNOR2X1_17 vdd _272_ gnd _273_ i_add_term1[56] NOR2X1
XINVX1_14 i_add_term1[57] _274_ vdd gnd INVX1
XNOR2X1_18 vdd _274_ gnd _275_ i_add_term2[57] NOR2X1
XINVX1_15 i_add_term2[57] _276_ vdd gnd INVX1
XNOR2X1_19 vdd _276_ gnd _277_ i_add_term1[57] NOR2X1
XOAI22X1_3 gnd vdd _277_ _275_ _271_ _273_ _278_ OAI22X1
XNOR2X1_20 vdd i_add_term1[59] gnd _279_ i_add_term2[59] NOR2X1
XAND2X2_3 vdd gnd i_add_term2[59] i_add_term1[59] _280_ AND2X2
XNOR2X1_21 vdd _280_ gnd _281_ _279_ NOR2X1
XXOR2X1_3 _282_ vdd i_add_term1[58] i_add_term2[58] gnd XOR2X1
XNAND2X1_6 vdd _283_ gnd _281_ _282_ NAND2X1
XNOR2X1_22 vdd _283_ gnd _45_ _278_ NOR2X1
XINVX1_16 _43_ _284_ vdd gnd INVX1
XNAND2X1_7 vdd _285_ gnd gnd _45_ NAND2X1
XOAI21X1_4 gnd vdd _45_ _284_ cskip1_inst.cin _285_ OAI21X1
XINVX1_17 gnd _289_ vdd gnd INVX1
XOR2X2_1 _290_ i_add_term1[0] vdd gnd i_add_term2[0] OR2X2
XNAND2X1_8 vdd _291_ gnd i_add_term2[0] i_add_term1[0] NAND2X1
XNAND3X1_1 _291_ vdd gnd _289_ _290_ _292_ NAND3X1
XNOR2X1_23 vdd i_add_term1[0] gnd _286_ i_add_term2[0] NOR2X1
XAND2X2_4 vdd gnd i_add_term2[0] i_add_term1[0] _287_ AND2X2
XOAI21X1_5 gnd vdd _286_ _287_ _288_ gnd OAI21X1
XNAND2X1_9 vdd _0_[0] gnd _288_ _292_ NAND2X1
XOAI21X1_6 gnd vdd _289_ _286_ _2_[1] _291_ OAI21X1
XINVX1_18 _2_[1] _296_ vdd gnd INVX1
XOR2X2_2 _297_ i_add_term1[1] vdd gnd i_add_term2[1] OR2X2
XNAND2X1_10 vdd _298_ gnd i_add_term2[1] i_add_term1[1] NAND2X1
XNAND3X1_2 _298_ vdd gnd _296_ _297_ _299_ NAND3X1
XNOR2X1_24 vdd i_add_term1[1] gnd _293_ i_add_term2[1] NOR2X1
XAND2X2_5 vdd gnd i_add_term2[1] i_add_term1[1] _294_ AND2X2
XOAI21X1_7 gnd vdd _293_ _294_ _295_ _2_[1] OAI21X1
XNAND2X1_11 vdd _0_[1] gnd _295_ _299_ NAND2X1
XOAI21X1_8 gnd vdd _296_ _293_ _2_[2] _298_ OAI21X1
XINVX1_19 _2_[2] _303_ vdd gnd INVX1
XOR2X2_3 _304_ i_add_term1[2] vdd gnd i_add_term2[2] OR2X2
XNAND2X1_12 vdd _305_ gnd i_add_term2[2] i_add_term1[2] NAND2X1
XNAND3X1_3 _305_ vdd gnd _303_ _304_ _306_ NAND3X1
XNOR2X1_25 vdd i_add_term1[2] gnd _300_ i_add_term2[2] NOR2X1
XAND2X2_6 vdd gnd i_add_term2[2] i_add_term1[2] _301_ AND2X2
XOAI21X1_9 gnd vdd _300_ _301_ _302_ _2_[2] OAI21X1
XNAND2X1_13 vdd _0_[2] gnd _302_ _306_ NAND2X1
XOAI21X1_10 gnd vdd _303_ _300_ _2_[3] _305_ OAI21X1
XINVX1_20 _2_[3] _310_ vdd gnd INVX1
XOR2X2_4 _311_ i_add_term1[3] vdd gnd i_add_term2[3] OR2X2
XNAND2X1_14 vdd _312_ gnd i_add_term2[3] i_add_term1[3] NAND2X1
XNAND3X1_4 _312_ vdd gnd _310_ _311_ _313_ NAND3X1
XNOR2X1_26 vdd i_add_term1[3] gnd _307_ i_add_term2[3] NOR2X1
XAND2X2_7 vdd gnd i_add_term2[3] i_add_term1[3] _308_ AND2X2
XOAI21X1_11 gnd vdd _307_ _308_ _309_ _2_[3] OAI21X1
XNAND2X1_15 vdd _0_[3] gnd _309_ _313_ NAND2X1
XOAI21X1_12 gnd vdd _310_ _307_ _1_ _312_ OAI21X1
XINVX1_21 w_cout[1] _317_ vdd gnd INVX1
XOR2X2_5 _318_ i_add_term1[4] vdd gnd i_add_term2[4] OR2X2
XNAND2X1_16 vdd _319_ gnd i_add_term2[4] i_add_term1[4] NAND2X1
XNAND3X1_5 _319_ vdd gnd _317_ _318_ _320_ NAND3X1
XNOR2X1_27 vdd i_add_term1[4] gnd _314_ i_add_term2[4] NOR2X1
XAND2X2_8 vdd gnd i_add_term2[4] i_add_term1[4] _315_ AND2X2
XOAI21X1_13 gnd vdd _314_ _315_ _316_ w_cout[1] OAI21X1
XNAND2X1_17 vdd _0_[4] gnd _316_ _320_ NAND2X1
XOAI21X1_14 gnd vdd _317_ _314_ _5_[1] _319_ OAI21X1
XINVX1_22 _5_[1] _324_ vdd gnd INVX1
XOR2X2_6 _325_ i_add_term1[5] vdd gnd i_add_term2[5] OR2X2
XNAND2X1_18 vdd _326_ gnd i_add_term2[5] i_add_term1[5] NAND2X1
XNAND3X1_6 _326_ vdd gnd _324_ _325_ _327_ NAND3X1
XNOR2X1_28 vdd i_add_term1[5] gnd _321_ i_add_term2[5] NOR2X1
XAND2X2_9 vdd gnd i_add_term2[5] i_add_term1[5] _322_ AND2X2
XOAI21X1_15 gnd vdd _321_ _322_ _323_ _5_[1] OAI21X1
XNAND2X1_19 vdd _0_[5] gnd _323_ _327_ NAND2X1
XOAI21X1_16 gnd vdd _324_ _321_ _5_[2] _326_ OAI21X1
XINVX1_23 _5_[2] _331_ vdd gnd INVX1
XOR2X2_7 _332_ i_add_term1[6] vdd gnd i_add_term2[6] OR2X2
XNAND2X1_20 vdd _333_ gnd i_add_term2[6] i_add_term1[6] NAND2X1
XNAND3X1_7 _333_ vdd gnd _331_ _332_ _334_ NAND3X1
XNOR2X1_29 vdd i_add_term1[6] gnd _328_ i_add_term2[6] NOR2X1
XAND2X2_10 vdd gnd i_add_term2[6] i_add_term1[6] _329_ AND2X2
XOAI21X1_17 gnd vdd _328_ _329_ _330_ _5_[2] OAI21X1
XNAND2X1_21 vdd _0_[6] gnd _330_ _334_ NAND2X1
XOAI21X1_18 gnd vdd _331_ _328_ _5_[3] _333_ OAI21X1
XINVX1_24 _5_[3] _338_ vdd gnd INVX1
XOR2X2_8 _339_ i_add_term1[7] vdd gnd i_add_term2[7] OR2X2
XNAND2X1_22 vdd _340_ gnd i_add_term2[7] i_add_term1[7] NAND2X1
XNAND3X1_8 _340_ vdd gnd _338_ _339_ _341_ NAND3X1
XNOR2X1_30 vdd i_add_term1[7] gnd _335_ i_add_term2[7] NOR2X1
XAND2X2_11 vdd gnd i_add_term2[7] i_add_term1[7] _336_ AND2X2
XOAI21X1_19 gnd vdd _335_ _336_ _337_ _5_[3] OAI21X1
XNAND2X1_23 vdd _0_[7] gnd _337_ _341_ NAND2X1
XOAI21X1_20 gnd vdd _338_ _335_ _4_ _340_ OAI21X1
XINVX1_25 w_cout[2] _345_ vdd gnd INVX1
XOR2X2_9 _346_ i_add_term1[8] vdd gnd i_add_term2[8] OR2X2
XNAND2X1_24 vdd _347_ gnd i_add_term2[8] i_add_term1[8] NAND2X1
XNAND3X1_9 _347_ vdd gnd _345_ _346_ _348_ NAND3X1
XNOR2X1_31 vdd i_add_term1[8] gnd _342_ i_add_term2[8] NOR2X1
XAND2X2_12 vdd gnd i_add_term2[8] i_add_term1[8] _343_ AND2X2
XOAI21X1_21 gnd vdd _342_ _343_ _344_ w_cout[2] OAI21X1
XNAND2X1_25 vdd _0_[8] gnd _344_ _348_ NAND2X1
XOAI21X1_22 gnd vdd _345_ _342_ _8_[1] _347_ OAI21X1
XINVX1_26 _8_[1] _352_ vdd gnd INVX1
XOR2X2_10 _353_ i_add_term1[9] vdd gnd i_add_term2[9] OR2X2
XNAND2X1_26 vdd _354_ gnd i_add_term2[9] i_add_term1[9] NAND2X1
XNAND3X1_10 _354_ vdd gnd _352_ _353_ _355_ NAND3X1
XNOR2X1_32 vdd i_add_term1[9] gnd _349_ i_add_term2[9] NOR2X1
XAND2X2_13 vdd gnd i_add_term2[9] i_add_term1[9] _350_ AND2X2
XOAI21X1_23 gnd vdd _349_ _350_ _351_ _8_[1] OAI21X1
XNAND2X1_27 vdd _0_[9] gnd _351_ _355_ NAND2X1
XOAI21X1_24 gnd vdd _352_ _349_ _8_[2] _354_ OAI21X1
XINVX1_27 _8_[2] _359_ vdd gnd INVX1
XOR2X2_11 _360_ i_add_term1[10] vdd gnd i_add_term2[10] OR2X2
XNAND2X1_28 vdd _361_ gnd i_add_term2[10] i_add_term1[10] NAND2X1
XNAND3X1_11 _361_ vdd gnd _359_ _360_ _362_ NAND3X1
XNOR2X1_33 vdd i_add_term1[10] gnd _356_ i_add_term2[10] NOR2X1
XAND2X2_14 vdd gnd i_add_term2[10] i_add_term1[10] _357_ AND2X2
XOAI21X1_25 gnd vdd _356_ _357_ _358_ _8_[2] OAI21X1
XNAND2X1_29 vdd _0_[10] gnd _358_ _362_ NAND2X1
XOAI21X1_26 gnd vdd _359_ _356_ _8_[3] _361_ OAI21X1
XINVX1_28 _8_[3] _366_ vdd gnd INVX1
XOR2X2_12 _367_ i_add_term1[11] vdd gnd i_add_term2[11] OR2X2
XNAND2X1_30 vdd _368_ gnd i_add_term2[11] i_add_term1[11] NAND2X1
XNAND3X1_12 _368_ vdd gnd _366_ _367_ _369_ NAND3X1
XNOR2X1_34 vdd i_add_term1[11] gnd _363_ i_add_term2[11] NOR2X1
XAND2X2_15 vdd gnd i_add_term2[11] i_add_term1[11] _364_ AND2X2
XOAI21X1_27 gnd vdd _363_ _364_ _365_ _8_[3] OAI21X1
XNAND2X1_31 vdd _0_[11] gnd _365_ _369_ NAND2X1
XOAI21X1_28 gnd vdd _366_ _363_ _7_ _368_ OAI21X1
XINVX1_29 w_cout[3] _373_ vdd gnd INVX1
XOR2X2_13 _374_ i_add_term1[12] vdd gnd i_add_term2[12] OR2X2
XNAND2X1_32 vdd _375_ gnd i_add_term2[12] i_add_term1[12] NAND2X1
XNAND3X1_13 _375_ vdd gnd _373_ _374_ _376_ NAND3X1
XNOR2X1_35 vdd i_add_term1[12] gnd _370_ i_add_term2[12] NOR2X1
XAND2X2_16 vdd gnd i_add_term2[12] i_add_term1[12] _371_ AND2X2
XOAI21X1_29 gnd vdd _370_ _371_ _372_ w_cout[3] OAI21X1
XNAND2X1_33 vdd _0_[12] gnd _372_ _376_ NAND2X1
XOAI21X1_30 gnd vdd _373_ _370_ _11_[1] _375_ OAI21X1
XINVX1_30 _11_[1] _380_ vdd gnd INVX1
XOR2X2_14 _381_ i_add_term1[13] vdd gnd i_add_term2[13] OR2X2
XNAND2X1_34 vdd _382_ gnd i_add_term2[13] i_add_term1[13] NAND2X1
XNAND3X1_14 _382_ vdd gnd _380_ _381_ _383_ NAND3X1
XNOR2X1_36 vdd i_add_term1[13] gnd _377_ i_add_term2[13] NOR2X1
XAND2X2_17 vdd gnd i_add_term2[13] i_add_term1[13] _378_ AND2X2
XOAI21X1_31 gnd vdd _377_ _378_ _379_ _11_[1] OAI21X1
XNAND2X1_35 vdd _0_[13] gnd _379_ _383_ NAND2X1
XOAI21X1_32 gnd vdd _380_ _377_ _11_[2] _382_ OAI21X1
XINVX1_31 _11_[2] _387_ vdd gnd INVX1
XOR2X2_15 _388_ i_add_term1[14] vdd gnd i_add_term2[14] OR2X2
XNAND2X1_36 vdd _389_ gnd i_add_term2[14] i_add_term1[14] NAND2X1
XNAND3X1_15 _389_ vdd gnd _387_ _388_ _390_ NAND3X1
XNOR2X1_37 vdd i_add_term1[14] gnd _384_ i_add_term2[14] NOR2X1
XAND2X2_18 vdd gnd i_add_term2[14] i_add_term1[14] _385_ AND2X2
XOAI21X1_33 gnd vdd _384_ _385_ _386_ _11_[2] OAI21X1
XNAND2X1_37 vdd _0_[14] gnd _386_ _390_ NAND2X1
XOAI21X1_34 gnd vdd _387_ _384_ _11_[3] _389_ OAI21X1
XINVX1_32 _11_[3] _394_ vdd gnd INVX1
XOR2X2_16 _395_ i_add_term1[15] vdd gnd i_add_term2[15] OR2X2
XNAND2X1_38 vdd _396_ gnd i_add_term2[15] i_add_term1[15] NAND2X1
XNAND3X1_16 _396_ vdd gnd _394_ _395_ _397_ NAND3X1
XNOR2X1_38 vdd i_add_term1[15] gnd _391_ i_add_term2[15] NOR2X1
XAND2X2_19 vdd gnd i_add_term2[15] i_add_term1[15] _392_ AND2X2
XOAI21X1_35 gnd vdd _391_ _392_ _393_ _11_[3] OAI21X1
XNAND2X1_39 vdd _0_[15] gnd _393_ _397_ NAND2X1
XOAI21X1_36 gnd vdd _394_ _391_ _10_ _396_ OAI21X1
XINVX1_33 w_cout[4] _401_ vdd gnd INVX1
XOR2X2_17 _402_ i_add_term1[16] vdd gnd i_add_term2[16] OR2X2
XNAND2X1_40 vdd _403_ gnd i_add_term2[16] i_add_term1[16] NAND2X1
XNAND3X1_17 _403_ vdd gnd _401_ _402_ _404_ NAND3X1
XNOR2X1_39 vdd i_add_term1[16] gnd _398_ i_add_term2[16] NOR2X1
XAND2X2_20 vdd gnd i_add_term2[16] i_add_term1[16] _399_ AND2X2
XOAI21X1_37 gnd vdd _398_ _399_ _400_ w_cout[4] OAI21X1
XNAND2X1_41 vdd _0_[16] gnd _400_ _404_ NAND2X1
XOAI21X1_38 gnd vdd _401_ _398_ _14_[1] _403_ OAI21X1
XINVX1_34 _14_[1] _408_ vdd gnd INVX1
XOR2X2_18 _409_ i_add_term1[17] vdd gnd i_add_term2[17] OR2X2
XNAND2X1_42 vdd _410_ gnd i_add_term2[17] i_add_term1[17] NAND2X1
XNAND3X1_18 _410_ vdd gnd _408_ _409_ _411_ NAND3X1
XNOR2X1_40 vdd i_add_term1[17] gnd _405_ i_add_term2[17] NOR2X1
XAND2X2_21 vdd gnd i_add_term2[17] i_add_term1[17] _406_ AND2X2
XOAI21X1_39 gnd vdd _405_ _406_ _407_ _14_[1] OAI21X1
XNAND2X1_43 vdd _0_[17] gnd _407_ _411_ NAND2X1
XOAI21X1_40 gnd vdd _408_ _405_ _14_[2] _410_ OAI21X1
XINVX1_35 _14_[2] _415_ vdd gnd INVX1
XOR2X2_19 _416_ i_add_term1[18] vdd gnd i_add_term2[18] OR2X2
XNAND2X1_44 vdd _417_ gnd i_add_term2[18] i_add_term1[18] NAND2X1
XNAND3X1_19 _417_ vdd gnd _415_ _416_ _418_ NAND3X1
XNOR2X1_41 vdd i_add_term1[18] gnd _412_ i_add_term2[18] NOR2X1
XAND2X2_22 vdd gnd i_add_term2[18] i_add_term1[18] _413_ AND2X2
XOAI21X1_41 gnd vdd _412_ _413_ _414_ _14_[2] OAI21X1
XNAND2X1_45 vdd _0_[18] gnd _414_ _418_ NAND2X1
XOAI21X1_42 gnd vdd _415_ _412_ _14_[3] _417_ OAI21X1
XINVX1_36 _14_[3] _422_ vdd gnd INVX1
XOR2X2_20 _423_ i_add_term1[19] vdd gnd i_add_term2[19] OR2X2
XNAND2X1_46 vdd _424_ gnd i_add_term2[19] i_add_term1[19] NAND2X1
XNAND3X1_20 _424_ vdd gnd _422_ _423_ _425_ NAND3X1
XNOR2X1_42 vdd i_add_term1[19] gnd _419_ i_add_term2[19] NOR2X1
XAND2X2_23 vdd gnd i_add_term2[19] i_add_term1[19] _420_ AND2X2
XOAI21X1_43 gnd vdd _419_ _420_ _421_ _14_[3] OAI21X1
XNAND2X1_47 vdd _0_[19] gnd _421_ _425_ NAND2X1
XOAI21X1_44 gnd vdd _422_ _419_ _13_ _424_ OAI21X1
XINVX1_37 w_cout[5] _429_ vdd gnd INVX1
XOR2X2_21 _430_ i_add_term1[20] vdd gnd i_add_term2[20] OR2X2
XNAND2X1_48 vdd _431_ gnd i_add_term2[20] i_add_term1[20] NAND2X1
XNAND3X1_21 _431_ vdd gnd _429_ _430_ _432_ NAND3X1
XNOR2X1_43 vdd i_add_term1[20] gnd _426_ i_add_term2[20] NOR2X1
XAND2X2_24 vdd gnd i_add_term2[20] i_add_term1[20] _427_ AND2X2
XOAI21X1_45 gnd vdd _426_ _427_ _428_ w_cout[5] OAI21X1
XNAND2X1_49 vdd _0_[20] gnd _428_ _432_ NAND2X1
XOAI21X1_46 gnd vdd _429_ _426_ _17_[1] _431_ OAI21X1
XINVX1_38 _17_[1] _436_ vdd gnd INVX1
XOR2X2_22 _437_ i_add_term1[21] vdd gnd i_add_term2[21] OR2X2
XNAND2X1_50 vdd _438_ gnd i_add_term2[21] i_add_term1[21] NAND2X1
XNAND3X1_22 _438_ vdd gnd _436_ _437_ _439_ NAND3X1
XNOR2X1_44 vdd i_add_term1[21] gnd _433_ i_add_term2[21] NOR2X1
XAND2X2_25 vdd gnd i_add_term2[21] i_add_term1[21] _434_ AND2X2
XOAI21X1_47 gnd vdd _433_ _434_ _435_ _17_[1] OAI21X1
XNAND2X1_51 vdd _0_[21] gnd _435_ _439_ NAND2X1
XOAI21X1_48 gnd vdd _436_ _433_ _17_[2] _438_ OAI21X1
XINVX1_39 _17_[2] _443_ vdd gnd INVX1
XOR2X2_23 _444_ i_add_term1[22] vdd gnd i_add_term2[22] OR2X2
XNAND2X1_52 vdd _445_ gnd i_add_term2[22] i_add_term1[22] NAND2X1
XNAND3X1_23 _445_ vdd gnd _443_ _444_ _446_ NAND3X1
XNOR2X1_45 vdd i_add_term1[22] gnd _440_ i_add_term2[22] NOR2X1
XAND2X2_26 vdd gnd i_add_term2[22] i_add_term1[22] _441_ AND2X2
XOAI21X1_49 gnd vdd _440_ _441_ _442_ _17_[2] OAI21X1
XNAND2X1_53 vdd _0_[22] gnd _442_ _446_ NAND2X1
XOAI21X1_50 gnd vdd _443_ _440_ _17_[3] _445_ OAI21X1
XINVX1_40 _17_[3] _450_ vdd gnd INVX1
XOR2X2_24 _451_ i_add_term1[23] vdd gnd i_add_term2[23] OR2X2
XNAND2X1_54 vdd _452_ gnd i_add_term2[23] i_add_term1[23] NAND2X1
XNAND3X1_24 _452_ vdd gnd _450_ _451_ _453_ NAND3X1
XNOR2X1_46 vdd i_add_term1[23] gnd _447_ i_add_term2[23] NOR2X1
XAND2X2_27 vdd gnd i_add_term2[23] i_add_term1[23] _448_ AND2X2
XOAI21X1_51 gnd vdd _447_ _448_ _449_ _17_[3] OAI21X1
XNAND2X1_55 vdd _0_[23] gnd _449_ _453_ NAND2X1
XOAI21X1_52 gnd vdd _450_ _447_ _16_ _452_ OAI21X1
XINVX1_41 w_cout[6] _457_ vdd gnd INVX1
XOR2X2_25 _458_ i_add_term1[24] vdd gnd i_add_term2[24] OR2X2
XNAND2X1_56 vdd _459_ gnd i_add_term2[24] i_add_term1[24] NAND2X1
XNAND3X1_25 _459_ vdd gnd _457_ _458_ _460_ NAND3X1
XNOR2X1_47 vdd i_add_term1[24] gnd _454_ i_add_term2[24] NOR2X1
XAND2X2_28 vdd gnd i_add_term2[24] i_add_term1[24] _455_ AND2X2
XOAI21X1_53 gnd vdd _454_ _455_ _456_ w_cout[6] OAI21X1
XNAND2X1_57 vdd _0_[24] gnd _456_ _460_ NAND2X1
XOAI21X1_54 gnd vdd _457_ _454_ _20_[1] _459_ OAI21X1
XINVX1_42 _20_[1] _464_ vdd gnd INVX1
XOR2X2_26 _465_ i_add_term1[25] vdd gnd i_add_term2[25] OR2X2
XNAND2X1_58 vdd _466_ gnd i_add_term2[25] i_add_term1[25] NAND2X1
XNAND3X1_26 _466_ vdd gnd _464_ _465_ _467_ NAND3X1
XNOR2X1_48 vdd i_add_term1[25] gnd _461_ i_add_term2[25] NOR2X1
XAND2X2_29 vdd gnd i_add_term2[25] i_add_term1[25] _462_ AND2X2
XOAI21X1_55 gnd vdd _461_ _462_ _463_ _20_[1] OAI21X1
XNAND2X1_59 vdd _0_[25] gnd _463_ _467_ NAND2X1
XOAI21X1_56 gnd vdd _464_ _461_ _20_[2] _466_ OAI21X1
XINVX1_43 _20_[2] _471_ vdd gnd INVX1
XOR2X2_27 _472_ i_add_term1[26] vdd gnd i_add_term2[26] OR2X2
XNAND2X1_60 vdd _473_ gnd i_add_term2[26] i_add_term1[26] NAND2X1
XNAND3X1_27 _473_ vdd gnd _471_ _472_ _474_ NAND3X1
XNOR2X1_49 vdd i_add_term1[26] gnd _468_ i_add_term2[26] NOR2X1
XAND2X2_30 vdd gnd i_add_term2[26] i_add_term1[26] _469_ AND2X2
XOAI21X1_57 gnd vdd _468_ _469_ _470_ _20_[2] OAI21X1
XNAND2X1_61 vdd _0_[26] gnd _470_ _474_ NAND2X1
XOAI21X1_58 gnd vdd _471_ _468_ _20_[3] _473_ OAI21X1
XINVX1_44 _20_[3] _478_ vdd gnd INVX1
XOR2X2_28 _479_ i_add_term1[27] vdd gnd i_add_term2[27] OR2X2
XNAND2X1_62 vdd _480_ gnd i_add_term2[27] i_add_term1[27] NAND2X1
XNAND3X1_28 _480_ vdd gnd _478_ _479_ _481_ NAND3X1
XNOR2X1_50 vdd i_add_term1[27] gnd _475_ i_add_term2[27] NOR2X1
XAND2X2_31 vdd gnd i_add_term2[27] i_add_term1[27] _476_ AND2X2
XOAI21X1_59 gnd vdd _475_ _476_ _477_ _20_[3] OAI21X1
XNAND2X1_63 vdd _0_[27] gnd _477_ _481_ NAND2X1
XOAI21X1_60 gnd vdd _478_ _475_ _19_ _480_ OAI21X1
XINVX1_45 w_cout[7] _485_ vdd gnd INVX1
XOR2X2_29 _486_ i_add_term1[28] vdd gnd i_add_term2[28] OR2X2
XNAND2X1_64 vdd _487_ gnd i_add_term2[28] i_add_term1[28] NAND2X1
XNAND3X1_29 _487_ vdd gnd _485_ _486_ _488_ NAND3X1
XNOR2X1_51 vdd i_add_term1[28] gnd _482_ i_add_term2[28] NOR2X1
XAND2X2_32 vdd gnd i_add_term2[28] i_add_term1[28] _483_ AND2X2
XOAI21X1_61 gnd vdd _482_ _483_ _484_ w_cout[7] OAI21X1
XNAND2X1_65 vdd _0_[28] gnd _484_ _488_ NAND2X1
XOAI21X1_62 gnd vdd _485_ _482_ _23_[1] _487_ OAI21X1
XINVX1_46 _23_[1] _492_ vdd gnd INVX1
XOR2X2_30 _493_ i_add_term1[29] vdd gnd i_add_term2[29] OR2X2
XNAND2X1_66 vdd _494_ gnd i_add_term2[29] i_add_term1[29] NAND2X1
XNAND3X1_30 _494_ vdd gnd _492_ _493_ _495_ NAND3X1
XNOR2X1_52 vdd i_add_term1[29] gnd _489_ i_add_term2[29] NOR2X1
XAND2X2_33 vdd gnd i_add_term2[29] i_add_term1[29] _490_ AND2X2
XOAI21X1_63 gnd vdd _489_ _490_ _491_ _23_[1] OAI21X1
XNAND2X1_67 vdd _0_[29] gnd _491_ _495_ NAND2X1
XOAI21X1_64 gnd vdd _492_ _489_ _23_[2] _494_ OAI21X1
XINVX1_47 _23_[2] _499_ vdd gnd INVX1
XOR2X2_31 _500_ i_add_term1[30] vdd gnd i_add_term2[30] OR2X2
XNAND2X1_68 vdd _501_ gnd i_add_term2[30] i_add_term1[30] NAND2X1
XNAND3X1_31 _501_ vdd gnd _499_ _500_ _502_ NAND3X1
XNOR2X1_53 vdd i_add_term1[30] gnd _496_ i_add_term2[30] NOR2X1
XAND2X2_34 vdd gnd i_add_term2[30] i_add_term1[30] _497_ AND2X2
XOAI21X1_65 gnd vdd _496_ _497_ _498_ _23_[2] OAI21X1
XNAND2X1_69 vdd _0_[30] gnd _498_ _502_ NAND2X1
XOAI21X1_66 gnd vdd _499_ _496_ _23_[3] _501_ OAI21X1
XINVX1_48 _23_[3] _506_ vdd gnd INVX1
XOR2X2_32 _507_ i_add_term1[31] vdd gnd i_add_term2[31] OR2X2
XNAND2X1_70 vdd _508_ gnd i_add_term2[31] i_add_term1[31] NAND2X1
XNAND3X1_32 _508_ vdd gnd _506_ _507_ _509_ NAND3X1
XNOR2X1_54 vdd i_add_term1[31] gnd _503_ i_add_term2[31] NOR2X1
XAND2X2_35 vdd gnd i_add_term2[31] i_add_term1[31] _504_ AND2X2
XOAI21X1_67 gnd vdd _503_ _504_ _505_ _23_[3] OAI21X1
XNAND2X1_71 vdd _0_[31] gnd _505_ _509_ NAND2X1
XOAI21X1_68 gnd vdd _506_ _503_ _22_ _508_ OAI21X1
XINVX1_49 w_cout[8] _513_ vdd gnd INVX1
XOR2X2_33 _514_ i_add_term1[32] vdd gnd i_add_term2[32] OR2X2
XNAND2X1_72 vdd _515_ gnd i_add_term2[32] i_add_term1[32] NAND2X1
XNAND3X1_33 _515_ vdd gnd _513_ _514_ _516_ NAND3X1
XNOR2X1_55 vdd i_add_term1[32] gnd _510_ i_add_term2[32] NOR2X1
XAND2X2_36 vdd gnd i_add_term2[32] i_add_term1[32] _511_ AND2X2
XOAI21X1_69 gnd vdd _510_ _511_ _512_ w_cout[8] OAI21X1
XNAND2X1_73 vdd _0_[32] gnd _512_ _516_ NAND2X1
XOAI21X1_70 gnd vdd _513_ _510_ _26_[1] _515_ OAI21X1
XINVX1_50 _26_[1] _520_ vdd gnd INVX1
XOR2X2_34 _521_ i_add_term1[33] vdd gnd i_add_term2[33] OR2X2
XNAND2X1_74 vdd _522_ gnd i_add_term2[33] i_add_term1[33] NAND2X1
XNAND3X1_34 _522_ vdd gnd _520_ _521_ _523_ NAND3X1
XNOR2X1_56 vdd i_add_term1[33] gnd _517_ i_add_term2[33] NOR2X1
XAND2X2_37 vdd gnd i_add_term2[33] i_add_term1[33] _518_ AND2X2
XOAI21X1_71 gnd vdd _517_ _518_ _519_ _26_[1] OAI21X1
XNAND2X1_75 vdd _0_[33] gnd _519_ _523_ NAND2X1
XOAI21X1_72 gnd vdd _520_ _517_ _26_[2] _522_ OAI21X1
XINVX1_51 _26_[2] _527_ vdd gnd INVX1
XOR2X2_35 _528_ i_add_term1[34] vdd gnd i_add_term2[34] OR2X2
XNAND2X1_76 vdd _529_ gnd i_add_term2[34] i_add_term1[34] NAND2X1
XNAND3X1_35 _529_ vdd gnd _527_ _528_ _530_ NAND3X1
XNOR2X1_57 vdd i_add_term1[34] gnd _524_ i_add_term2[34] NOR2X1
XAND2X2_38 vdd gnd i_add_term2[34] i_add_term1[34] _525_ AND2X2
XOAI21X1_73 gnd vdd _524_ _525_ _526_ _26_[2] OAI21X1
XNAND2X1_77 vdd _0_[34] gnd _526_ _530_ NAND2X1
XOAI21X1_74 gnd vdd _527_ _524_ _26_[3] _529_ OAI21X1
XINVX1_52 _26_[3] _534_ vdd gnd INVX1
XOR2X2_36 _535_ i_add_term1[35] vdd gnd i_add_term2[35] OR2X2
XNAND2X1_78 vdd _536_ gnd i_add_term2[35] i_add_term1[35] NAND2X1
XNAND3X1_36 _536_ vdd gnd _534_ _535_ _537_ NAND3X1
XNOR2X1_58 vdd i_add_term1[35] gnd _531_ i_add_term2[35] NOR2X1
XAND2X2_39 vdd gnd i_add_term2[35] i_add_term1[35] _532_ AND2X2
XOAI21X1_75 gnd vdd _531_ _532_ _533_ _26_[3] OAI21X1
XNAND2X1_79 vdd _0_[35] gnd _533_ _537_ NAND2X1
XOAI21X1_76 gnd vdd _534_ _531_ _25_ _536_ OAI21X1
XINVX1_53 w_cout[9] _541_ vdd gnd INVX1
XOR2X2_37 _542_ i_add_term1[36] vdd gnd i_add_term2[36] OR2X2
XNAND2X1_80 vdd _543_ gnd i_add_term2[36] i_add_term1[36] NAND2X1
XNAND3X1_37 _543_ vdd gnd _541_ _542_ _544_ NAND3X1
XNOR2X1_59 vdd i_add_term1[36] gnd _538_ i_add_term2[36] NOR2X1
XAND2X2_40 vdd gnd i_add_term2[36] i_add_term1[36] _539_ AND2X2
XOAI21X1_77 gnd vdd _538_ _539_ _540_ w_cout[9] OAI21X1
XNAND2X1_81 vdd _0_[36] gnd _540_ _544_ NAND2X1
XOAI21X1_78 gnd vdd _541_ _538_ _29_[1] _543_ OAI21X1
XINVX1_54 _29_[1] _548_ vdd gnd INVX1
XOR2X2_38 _549_ i_add_term1[37] vdd gnd i_add_term2[37] OR2X2
XNAND2X1_82 vdd _550_ gnd i_add_term2[37] i_add_term1[37] NAND2X1
XNAND3X1_38 _550_ vdd gnd _548_ _549_ _551_ NAND3X1
XNOR2X1_60 vdd i_add_term1[37] gnd _545_ i_add_term2[37] NOR2X1
XAND2X2_41 vdd gnd i_add_term2[37] i_add_term1[37] _546_ AND2X2
XOAI21X1_79 gnd vdd _545_ _546_ _547_ _29_[1] OAI21X1
XNAND2X1_83 vdd _0_[37] gnd _547_ _551_ NAND2X1
XOAI21X1_80 gnd vdd _548_ _545_ _29_[2] _550_ OAI21X1
XINVX1_55 _29_[2] _555_ vdd gnd INVX1
XOR2X2_39 _556_ i_add_term1[38] vdd gnd i_add_term2[38] OR2X2
XNAND2X1_84 vdd _557_ gnd i_add_term2[38] i_add_term1[38] NAND2X1
XNAND3X1_39 _557_ vdd gnd _555_ _556_ _558_ NAND3X1
XNOR2X1_61 vdd i_add_term1[38] gnd _552_ i_add_term2[38] NOR2X1
XAND2X2_42 vdd gnd i_add_term2[38] i_add_term1[38] _553_ AND2X2
XOAI21X1_81 gnd vdd _552_ _553_ _554_ _29_[2] OAI21X1
XNAND2X1_85 vdd _0_[38] gnd _554_ _558_ NAND2X1
XOAI21X1_82 gnd vdd _555_ _552_ _29_[3] _557_ OAI21X1
XINVX1_56 _29_[3] _562_ vdd gnd INVX1
XOR2X2_40 _563_ i_add_term1[39] vdd gnd i_add_term2[39] OR2X2
XNAND2X1_86 vdd _564_ gnd i_add_term2[39] i_add_term1[39] NAND2X1
XNAND3X1_40 _564_ vdd gnd _562_ _563_ _565_ NAND3X1
XNOR2X1_62 vdd i_add_term1[39] gnd _559_ i_add_term2[39] NOR2X1
XAND2X2_43 vdd gnd i_add_term2[39] i_add_term1[39] _560_ AND2X2
XOAI21X1_83 gnd vdd _559_ _560_ _561_ _29_[3] OAI21X1
XNAND2X1_87 vdd _0_[39] gnd _561_ _565_ NAND2X1
XOAI21X1_84 gnd vdd _562_ _559_ _28_ _564_ OAI21X1
XINVX1_57 w_cout[10] _569_ vdd gnd INVX1
XOR2X2_41 _570_ i_add_term1[40] vdd gnd i_add_term2[40] OR2X2
XNAND2X1_88 vdd _571_ gnd i_add_term2[40] i_add_term1[40] NAND2X1
XNAND3X1_41 _571_ vdd gnd _569_ _570_ _572_ NAND3X1
XNOR2X1_63 vdd i_add_term1[40] gnd _566_ i_add_term2[40] NOR2X1
XAND2X2_44 vdd gnd i_add_term2[40] i_add_term1[40] _567_ AND2X2
XOAI21X1_85 gnd vdd _566_ _567_ _568_ w_cout[10] OAI21X1
XNAND2X1_89 vdd _0_[40] gnd _568_ _572_ NAND2X1
XOAI21X1_86 gnd vdd _569_ _566_ _32_[1] _571_ OAI21X1
XINVX1_58 _32_[1] _576_ vdd gnd INVX1
XOR2X2_42 _577_ i_add_term1[41] vdd gnd i_add_term2[41] OR2X2
XNAND2X1_90 vdd _578_ gnd i_add_term2[41] i_add_term1[41] NAND2X1
XNAND3X1_42 _578_ vdd gnd _576_ _577_ _579_ NAND3X1
XNOR2X1_64 vdd i_add_term1[41] gnd _573_ i_add_term2[41] NOR2X1
XAND2X2_45 vdd gnd i_add_term2[41] i_add_term1[41] _574_ AND2X2
XOAI21X1_87 gnd vdd _573_ _574_ _575_ _32_[1] OAI21X1
XNAND2X1_91 vdd _0_[41] gnd _575_ _579_ NAND2X1
XOAI21X1_88 gnd vdd _576_ _573_ _32_[2] _578_ OAI21X1
XINVX1_59 _32_[2] _583_ vdd gnd INVX1
XOR2X2_43 _584_ i_add_term1[42] vdd gnd i_add_term2[42] OR2X2
XNAND2X1_92 vdd _585_ gnd i_add_term2[42] i_add_term1[42] NAND2X1
XNAND3X1_43 _585_ vdd gnd _583_ _584_ _586_ NAND3X1
XNOR2X1_65 vdd i_add_term1[42] gnd _580_ i_add_term2[42] NOR2X1
XAND2X2_46 vdd gnd i_add_term2[42] i_add_term1[42] _581_ AND2X2
XOAI21X1_89 gnd vdd _580_ _581_ _582_ _32_[2] OAI21X1
XNAND2X1_93 vdd _0_[42] gnd _582_ _586_ NAND2X1
XOAI21X1_90 gnd vdd _583_ _580_ _32_[3] _585_ OAI21X1
XINVX1_60 _32_[3] _590_ vdd gnd INVX1
XOR2X2_44 _591_ i_add_term1[43] vdd gnd i_add_term2[43] OR2X2
XNAND2X1_94 vdd _592_ gnd i_add_term2[43] i_add_term1[43] NAND2X1
XNAND3X1_44 _592_ vdd gnd _590_ _591_ _593_ NAND3X1
XNOR2X1_66 vdd i_add_term1[43] gnd _587_ i_add_term2[43] NOR2X1
XAND2X2_47 vdd gnd i_add_term2[43] i_add_term1[43] _588_ AND2X2
XOAI21X1_91 gnd vdd _587_ _588_ _589_ _32_[3] OAI21X1
XNAND2X1_95 vdd _0_[43] gnd _589_ _593_ NAND2X1
XOAI21X1_92 gnd vdd _590_ _587_ _31_ _592_ OAI21X1
XINVX1_61 w_cout[11] _597_ vdd gnd INVX1
XOR2X2_45 _598_ i_add_term1[44] vdd gnd i_add_term2[44] OR2X2
XNAND2X1_96 vdd _599_ gnd i_add_term2[44] i_add_term1[44] NAND2X1
XNAND3X1_45 _599_ vdd gnd _597_ _598_ _600_ NAND3X1
XNOR2X1_67 vdd i_add_term1[44] gnd _594_ i_add_term2[44] NOR2X1
XAND2X2_48 vdd gnd i_add_term2[44] i_add_term1[44] _595_ AND2X2
XOAI21X1_93 gnd vdd _594_ _595_ _596_ w_cout[11] OAI21X1
XNAND2X1_97 vdd _0_[44] gnd _596_ _600_ NAND2X1
XOAI21X1_94 gnd vdd _597_ _594_ _35_[1] _599_ OAI21X1
XINVX1_62 _35_[1] _604_ vdd gnd INVX1
XOR2X2_46 _605_ i_add_term1[45] vdd gnd i_add_term2[45] OR2X2
XNAND2X1_98 vdd _606_ gnd i_add_term2[45] i_add_term1[45] NAND2X1
XNAND3X1_46 _606_ vdd gnd _604_ _605_ _607_ NAND3X1
XNOR2X1_68 vdd i_add_term1[45] gnd _601_ i_add_term2[45] NOR2X1
XAND2X2_49 vdd gnd i_add_term2[45] i_add_term1[45] _602_ AND2X2
XOAI21X1_95 gnd vdd _601_ _602_ _603_ _35_[1] OAI21X1
XNAND2X1_99 vdd _0_[45] gnd _603_ _607_ NAND2X1
XOAI21X1_96 gnd vdd _604_ _601_ _35_[2] _606_ OAI21X1
XINVX1_63 _35_[2] _611_ vdd gnd INVX1
XOR2X2_47 _612_ i_add_term1[46] vdd gnd i_add_term2[46] OR2X2
XNAND2X1_100 vdd _613_ gnd i_add_term2[46] i_add_term1[46] NAND2X1
XNAND3X1_47 _613_ vdd gnd _611_ _612_ _614_ NAND3X1
XNOR2X1_69 vdd i_add_term1[46] gnd _608_ i_add_term2[46] NOR2X1
XAND2X2_50 vdd gnd i_add_term2[46] i_add_term1[46] _609_ AND2X2
XOAI21X1_97 gnd vdd _608_ _609_ _610_ _35_[2] OAI21X1
XNAND2X1_101 vdd _0_[46] gnd _610_ _614_ NAND2X1
XOAI21X1_98 gnd vdd _611_ _608_ _35_[3] _613_ OAI21X1
XINVX1_64 _35_[3] _618_ vdd gnd INVX1
XOR2X2_48 _619_ i_add_term1[47] vdd gnd i_add_term2[47] OR2X2
XNAND2X1_102 vdd _620_ gnd i_add_term2[47] i_add_term1[47] NAND2X1
XNAND3X1_48 _620_ vdd gnd _618_ _619_ _621_ NAND3X1
XNOR2X1_70 vdd i_add_term1[47] gnd _615_ i_add_term2[47] NOR2X1
XAND2X2_51 vdd gnd i_add_term2[47] i_add_term1[47] _616_ AND2X2
XOAI21X1_99 gnd vdd _615_ _616_ _617_ _35_[3] OAI21X1
XNAND2X1_103 vdd _0_[47] gnd _617_ _621_ NAND2X1
XOAI21X1_100 gnd vdd _618_ _615_ _34_ _620_ OAI21X1
XINVX1_65 w_cout[12] _625_ vdd gnd INVX1
XOR2X2_49 _626_ i_add_term1[48] vdd gnd i_add_term2[48] OR2X2
XNAND2X1_104 vdd _627_ gnd i_add_term2[48] i_add_term1[48] NAND2X1
XNAND3X1_49 _627_ vdd gnd _625_ _626_ _628_ NAND3X1
XNOR2X1_71 vdd i_add_term1[48] gnd _622_ i_add_term2[48] NOR2X1
XAND2X2_52 vdd gnd i_add_term2[48] i_add_term1[48] _623_ AND2X2
XOAI21X1_101 gnd vdd _622_ _623_ _624_ w_cout[12] OAI21X1
XNAND2X1_105 vdd _0_[48] gnd _624_ _628_ NAND2X1
XOAI21X1_102 gnd vdd _625_ _622_ _38_[1] _627_ OAI21X1
XINVX1_66 _38_[1] _632_ vdd gnd INVX1