* XSpice netlist created from SPICE and liberty sources by spi2xspice.py
*SPICE netlist created from BLIF module CSkipA_58bit by blif2BSpice
.subckt CSkipA_58bit a_vdd a_gnd a_i_add_term1_0_ a_i_add_term1_1_ a_i_add_term1_2_ a_i_add_term1_3_ a_i_add_term1_4_ a_i_add_term1_5_ a_i_add_term1_6_ a_i_add_term1_7_ a_i_add_term1_8_ a_i_add_term1_9_ a_i_add_term1_10_ a_i_add_term1_11_ a_i_add_term1_12_ a_i_add_term1_13_ a_i_add_term1_14_ a_i_add_term1_15_ a_i_add_term1_16_ a_i_add_term1_17_ a_i_add_term1_18_ a_i_add_term1_19_ a_i_add_term1_20_ a_i_add_term1_21_ a_i_add_term1_22_ a_i_add_term1_23_ a_i_add_term1_24_ a_i_add_term1_25_ a_i_add_term1_26_ a_i_add_term1_27_ a_i_add_term1_28_ a_i_add_term1_29_ a_i_add_term1_30_ a_i_add_term1_31_ a_i_add_term1_32_ a_i_add_term1_33_ a_i_add_term1_34_ a_i_add_term1_35_ a_i_add_term1_36_ a_i_add_term1_37_ a_i_add_term1_38_ a_i_add_term1_39_ a_i_add_term1_40_ a_i_add_term1_41_ a_i_add_term1_42_ a_i_add_term1_43_ a_i_add_term1_44_ a_i_add_term1_45_ a_i_add_term1_46_ a_i_add_term1_47_ a_i_add_term1_48_ a_i_add_term1_49_ a_i_add_term1_50_ a_i_add_term1_51_ a_i_add_term1_52_ a_i_add_term1_53_ a_i_add_term1_54_ a_i_add_term1_55_ a_i_add_term1_56_ a_i_add_term1_57_ a_i_add_term2_0_ a_i_add_term2_1_ a_i_add_term2_2_ a_i_add_term2_3_ a_i_add_term2_4_ a_i_add_term2_5_ a_i_add_term2_6_ a_i_add_term2_7_ a_i_add_term2_8_ a_i_add_term2_9_ a_i_add_term2_10_ a_i_add_term2_11_ a_i_add_term2_12_ a_i_add_term2_13_ a_i_add_term2_14_ a_i_add_term2_15_ a_i_add_term2_16_ a_i_add_term2_17_ a_i_add_term2_18_ a_i_add_term2_19_ a_i_add_term2_20_ a_i_add_term2_21_ a_i_add_term2_22_ a_i_add_term2_23_ a_i_add_term2_24_ a_i_add_term2_25_ a_i_add_term2_26_ a_i_add_term2_27_ a_i_add_term2_28_ a_i_add_term2_29_ a_i_add_term2_30_ a_i_add_term2_31_ a_i_add_term2_32_ a_i_add_term2_33_ a_i_add_term2_34_ a_i_add_term2_35_ a_i_add_term2_36_ a_i_add_term2_37_ a_i_add_term2_38_ a_i_add_term2_39_ a_i_add_term2_40_ a_i_add_term2_41_ a_i_add_term2_42_ a_i_add_term2_43_ a_i_add_term2_44_ a_i_add_term2_45_ a_i_add_term2_46_ a_i_add_term2_47_ a_i_add_term2_48_ a_i_add_term2_49_ a_i_add_term2_50_ a_i_add_term2_51_ a_i_add_term2_52_ a_i_add_term2_53_ a_i_add_term2_54_ a_i_add_term2_55_ a_i_add_term2_56_ a_i_add_term2_57_ a_sum_0_ a_sum_1_ a_sum_2_ a_sum_3_ a_sum_4_ a_sum_5_ a_sum_6_ a_sum_7_ a_sum_8_ a_sum_9_ a_sum_10_ a_sum_11_ a_sum_12_ a_sum_13_ a_sum_14_ a_sum_15_ a_sum_16_ a_sum_17_ a_sum_18_ a_sum_19_ a_sum_20_ a_sum_21_ a_sum_22_ a_sum_23_ a_sum_24_ a_sum_25_ a_sum_26_ a_sum_27_ a_sum_28_ a_sum_29_ a_sum_30_ a_sum_31_ a_sum_32_ a_sum_33_ a_sum_34_ a_sum_35_ a_sum_36_ a_sum_37_ a_sum_38_ a_sum_39_ a_sum_40_ a_sum_41_ a_sum_42_ a_sum_43_ a_sum_44_ a_sum_45_ a_sum_46_ a_sum_47_ a_sum_48_ a_sum_49_ a_sum_50_ a_sum_51_ a_sum_52_ a_sum_53_ a_sum_54_ a_sum_55_ a_sum_56_ a_sum_57_ a_cout
AINVX1_1 [gnd] _270_ d_lut_INVX1
AOR2X2_1 [i_add_term2_0_ i_add_term1_0_] _271_ d_lut_OR2X2
ANAND2X1_1 [i_add_term2_0_ i_add_term1_0_] _272_ d_lut_NAND2X1
ANAND3X1_1 [_270_ _272_ _271_] _273_ d_lut_NAND3X1
ANOR2X1_1 [i_add_term2_0_ i_add_term1_0_] _267_ d_lut_NOR2X1
AAND2X2_1 [i_add_term2_0_ i_add_term1_0_] _268_ d_lut_AND2X2
AOAI21X1_1 [_267_ _268_ gnd] _269_ d_lut_OAI21X1
ANAND2X1_2 [_269_ _273_] _0__0_ d_lut_NAND2X1
AOAI21X1_2 [_270_ _267_ _272_] _2__1_ d_lut_OAI21X1
AINVX1_2 [_2__1_] _277_ d_lut_INVX1
AOR2X2_2 [i_add_term2_1_ i_add_term1_1_] _278_ d_lut_OR2X2
ANAND2X1_3 [i_add_term2_1_ i_add_term1_1_] _279_ d_lut_NAND2X1
ANAND3X1_2 [_277_ _279_ _278_] _280_ d_lut_NAND3X1
ANOR2X1_2 [i_add_term2_1_ i_add_term1_1_] _274_ d_lut_NOR2X1
AAND2X2_2 [i_add_term2_1_ i_add_term1_1_] _275_ d_lut_AND2X2
AOAI21X1_3 [_274_ _275_ _2__1_] _276_ d_lut_OAI21X1
ANAND2X1_4 [_276_ _280_] _0__1_ d_lut_NAND2X1
AOAI21X1_4 [_277_ _274_ _279_] _2__2_ d_lut_OAI21X1
AINVX1_3 [_2__2_] _284_ d_lut_INVX1
AOR2X2_3 [i_add_term2_2_ i_add_term1_2_] _285_ d_lut_OR2X2
ANAND2X1_5 [i_add_term2_2_ i_add_term1_2_] _286_ d_lut_NAND2X1
ANAND3X1_3 [_284_ _286_ _285_] _287_ d_lut_NAND3X1
ANOR2X1_3 [i_add_term2_2_ i_add_term1_2_] _281_ d_lut_NOR2X1
AAND2X2_3 [i_add_term2_2_ i_add_term1_2_] _282_ d_lut_AND2X2
AOAI21X1_5 [_281_ _282_ _2__2_] _283_ d_lut_OAI21X1
ANAND2X1_6 [_283_ _287_] _0__2_ d_lut_NAND2X1
AOAI21X1_6 [_284_ _281_ _286_] _2__3_ d_lut_OAI21X1
AINVX1_4 [_2__3_] _291_ d_lut_INVX1
AOR2X2_4 [i_add_term2_3_ i_add_term1_3_] _292_ d_lut_OR2X2
ANAND2X1_7 [i_add_term2_3_ i_add_term1_3_] _293_ d_lut_NAND2X1
ANAND3X1_4 [_291_ _293_ _292_] _294_ d_lut_NAND3X1
ANOR2X1_4 [i_add_term2_3_ i_add_term1_3_] _288_ d_lut_NOR2X1
AAND2X2_4 [i_add_term2_3_ i_add_term1_3_] _289_ d_lut_AND2X2
AOAI21X1_7 [_288_ _289_ _2__3_] _290_ d_lut_OAI21X1
ANAND2X1_8 [_290_ _294_] _0__3_ d_lut_NAND2X1
AOAI21X1_8 [_291_ _288_ _293_] _1_ d_lut_OAI21X1
AINVX1_5 [w_cout_1_] _298_ d_lut_INVX1
AOR2X2_5 [i_add_term2_4_ i_add_term1_4_] _299_ d_lut_OR2X2
ANAND2X1_9 [i_add_term2_4_ i_add_term1_4_] _300_ d_lut_NAND2X1
ANAND3X1_5 [_298_ _300_ _299_] _301_ d_lut_NAND3X1
ANOR2X1_5 [i_add_term2_4_ i_add_term1_4_] _295_ d_lut_NOR2X1
AAND2X2_5 [i_add_term2_4_ i_add_term1_4_] _296_ d_lut_AND2X2
AOAI21X1_9 [_295_ _296_ w_cout_1_] _297_ d_lut_OAI21X1
ANAND2X1_10 [_297_ _301_] _0__4_ d_lut_NAND2X1
AOAI21X1_10 [_298_ _295_ _300_] _5__1_ d_lut_OAI21X1
AINVX1_6 [_5__1_] _305_ d_lut_INVX1
AOR2X2_6 [i_add_term2_5_ i_add_term1_5_] _306_ d_lut_OR2X2
ANAND2X1_11 [i_add_term2_5_ i_add_term1_5_] _307_ d_lut_NAND2X1
ANAND3X1_6 [_305_ _307_ _306_] _308_ d_lut_NAND3X1
ANOR2X1_6 [i_add_term2_5_ i_add_term1_5_] _302_ d_lut_NOR2X1
AAND2X2_6 [i_add_term2_5_ i_add_term1_5_] _303_ d_lut_AND2X2
AOAI21X1_11 [_302_ _303_ _5__1_] _304_ d_lut_OAI21X1
ANAND2X1_12 [_304_ _308_] _0__5_ d_lut_NAND2X1
AOAI21X1_12 [_305_ _302_ _307_] _5__2_ d_lut_OAI21X1
AINVX1_7 [_5__2_] _312_ d_lut_INVX1
AOR2X2_7 [i_add_term2_6_ i_add_term1_6_] _313_ d_lut_OR2X2
ANAND2X1_13 [i_add_term2_6_ i_add_term1_6_] _314_ d_lut_NAND2X1
ANAND3X1_7 [_312_ _314_ _313_] _315_ d_lut_NAND3X1
ANOR2X1_7 [i_add_term2_6_ i_add_term1_6_] _309_ d_lut_NOR2X1
AAND2X2_7 [i_add_term2_6_ i_add_term1_6_] _310_ d_lut_AND2X2
AOAI21X1_13 [_309_ _310_ _5__2_] _311_ d_lut_OAI21X1
ANAND2X1_14 [_311_ _315_] _0__6_ d_lut_NAND2X1
AOAI21X1_14 [_312_ _309_ _314_] _5__3_ d_lut_OAI21X1
AINVX1_8 [_5__3_] _319_ d_lut_INVX1
AOR2X2_8 [i_add_term2_7_ i_add_term1_7_] _320_ d_lut_OR2X2
ANAND2X1_15 [i_add_term2_7_ i_add_term1_7_] _321_ d_lut_NAND2X1
ANAND3X1_8 [_319_ _321_ _320_] _322_ d_lut_NAND3X1
ANOR2X1_8 [i_add_term2_7_ i_add_term1_7_] _316_ d_lut_NOR2X1
AAND2X2_8 [i_add_term2_7_ i_add_term1_7_] _317_ d_lut_AND2X2
AOAI21X1_15 [_316_ _317_ _5__3_] _318_ d_lut_OAI21X1
ANAND2X1_16 [_318_ _322_] _0__7_ d_lut_NAND2X1
AOAI21X1_16 [_319_ _316_ _321_] _4_ d_lut_OAI21X1
AINVX1_9 [w_cout_2_] _326_ d_lut_INVX1
AOR2X2_9 [i_add_term2_8_ i_add_term1_8_] _327_ d_lut_OR2X2
ANAND2X1_17 [i_add_term2_8_ i_add_term1_8_] _328_ d_lut_NAND2X1
ANAND3X1_9 [_326_ _328_ _327_] _329_ d_lut_NAND3X1
ANOR2X1_9 [i_add_term2_8_ i_add_term1_8_] _323_ d_lut_NOR2X1
AAND2X2_9 [i_add_term2_8_ i_add_term1_8_] _324_ d_lut_AND2X2
AOAI21X1_17 [_323_ _324_ w_cout_2_] _325_ d_lut_OAI21X1
ANAND2X1_18 [_325_ _329_] _0__8_ d_lut_NAND2X1
AOAI21X1_18 [_326_ _323_ _328_] _8__1_ d_lut_OAI21X1
AINVX1_10 [_8__1_] _333_ d_lut_INVX1
AOR2X2_10 [i_add_term2_9_ i_add_term1_9_] _334_ d_lut_OR2X2
ANAND2X1_19 [i_add_term2_9_ i_add_term1_9_] _335_ d_lut_NAND2X1
ANAND3X1_10 [_333_ _335_ _334_] _336_ d_lut_NAND3X1
ANOR2X1_10 [i_add_term2_9_ i_add_term1_9_] _330_ d_lut_NOR2X1
AAND2X2_10 [i_add_term2_9_ i_add_term1_9_] _331_ d_lut_AND2X2
AOAI21X1_19 [_330_ _331_ _8__1_] _332_ d_lut_OAI21X1
ANAND2X1_20 [_332_ _336_] _0__9_ d_lut_NAND2X1
AOAI21X1_20 [_333_ _330_ _335_] _8__2_ d_lut_OAI21X1
AINVX1_11 [_8__2_] _340_ d_lut_INVX1
AOR2X2_11 [i_add_term2_10_ i_add_term1_10_] _341_ d_lut_OR2X2
ANAND2X1_21 [i_add_term2_10_ i_add_term1_10_] _342_ d_lut_NAND2X1
ANAND3X1_11 [_340_ _342_ _341_] _343_ d_lut_NAND3X1
ANOR2X1_11 [i_add_term2_10_ i_add_term1_10_] _337_ d_lut_NOR2X1
AAND2X2_11 [i_add_term2_10_ i_add_term1_10_] _338_ d_lut_AND2X2
AOAI21X1_21 [_337_ _338_ _8__2_] _339_ d_lut_OAI21X1
ANAND2X1_22 [_339_ _343_] _0__10_ d_lut_NAND2X1
AOAI21X1_22 [_340_ _337_ _342_] _8__3_ d_lut_OAI21X1
AINVX1_12 [_8__3_] _347_ d_lut_INVX1
AOR2X2_12 [i_add_term2_11_ i_add_term1_11_] _348_ d_lut_OR2X2
ANAND2X1_23 [i_add_term2_11_ i_add_term1_11_] _349_ d_lut_NAND2X1
ANAND3X1_12 [_347_ _349_ _348_] _350_ d_lut_NAND3X1
ANOR2X1_12 [i_add_term2_11_ i_add_term1_11_] _344_ d_lut_NOR2X1
AAND2X2_12 [i_add_term2_11_ i_add_term1_11_] _345_ d_lut_AND2X2
AOAI21X1_23 [_344_ _345_ _8__3_] _346_ d_lut_OAI21X1
ANAND2X1_24 [_346_ _350_] _0__11_ d_lut_NAND2X1
AOAI21X1_24 [_347_ _344_ _349_] _7_ d_lut_OAI21X1
AINVX1_13 [w_cout_3_] _354_ d_lut_INVX1
AOR2X2_13 [i_add_term2_12_ i_add_term1_12_] _355_ d_lut_OR2X2
ANAND2X1_25 [i_add_term2_12_ i_add_term1_12_] _356_ d_lut_NAND2X1
ANAND3X1_13 [_354_ _356_ _355_] _357_ d_lut_NAND3X1
ANOR2X1_13 [i_add_term2_12_ i_add_term1_12_] _351_ d_lut_NOR2X1
AAND2X2_13 [i_add_term2_12_ i_add_term1_12_] _352_ d_lut_AND2X2
AOAI21X1_25 [_351_ _352_ w_cout_3_] _353_ d_lut_OAI21X1
ANAND2X1_26 [_353_ _357_] _0__12_ d_lut_NAND2X1
AOAI21X1_26 [_354_ _351_ _356_] _11__1_ d_lut_OAI21X1
AINVX1_14 [_11__1_] _361_ d_lut_INVX1
AOR2X2_14 [i_add_term2_13_ i_add_term1_13_] _362_ d_lut_OR2X2
ANAND2X1_27 [i_add_term2_13_ i_add_term1_13_] _363_ d_lut_NAND2X1
ANAND3X1_14 [_361_ _363_ _362_] _364_ d_lut_NAND3X1
ANOR2X1_14 [i_add_term2_13_ i_add_term1_13_] _358_ d_lut_NOR2X1
AAND2X2_14 [i_add_term2_13_ i_add_term1_13_] _359_ d_lut_AND2X2
AOAI21X1_27 [_358_ _359_ _11__1_] _360_ d_lut_OAI21X1
ANAND2X1_28 [_360_ _364_] _0__13_ d_lut_NAND2X1
AOAI21X1_28 [_361_ _358_ _363_] _11__2_ d_lut_OAI21X1
AINVX1_15 [_11__2_] _368_ d_lut_INVX1
AOR2X2_15 [i_add_term2_14_ i_add_term1_14_] _369_ d_lut_OR2X2
ANAND2X1_29 [i_add_term2_14_ i_add_term1_14_] _370_ d_lut_NAND2X1
ANAND3X1_15 [_368_ _370_ _369_] _371_ d_lut_NAND3X1
ANOR2X1_15 [i_add_term2_14_ i_add_term1_14_] _365_ d_lut_NOR2X1
AAND2X2_15 [i_add_term2_14_ i_add_term1_14_] _366_ d_lut_AND2X2
AOAI21X1_29 [_365_ _366_ _11__2_] _367_ d_lut_OAI21X1
ANAND2X1_30 [_367_ _371_] _0__14_ d_lut_NAND2X1
AOAI21X1_30 [_368_ _365_ _370_] _11__3_ d_lut_OAI21X1
AINVX1_16 [_11__3_] _375_ d_lut_INVX1
AOR2X2_16 [i_add_term2_15_ i_add_term1_15_] _376_ d_lut_OR2X2
ANAND2X1_31 [i_add_term2_15_ i_add_term1_15_] _377_ d_lut_NAND2X1
ANAND3X1_16 [_375_ _377_ _376_] _378_ d_lut_NAND3X1
ANOR2X1_16 [i_add_term2_15_ i_add_term1_15_] _372_ d_lut_NOR2X1
AAND2X2_16 [i_add_term2_15_ i_add_term1_15_] _373_ d_lut_AND2X2
AOAI21X1_31 [_372_ _373_ _11__3_] _374_ d_lut_OAI21X1
ANAND2X1_32 [_374_ _378_] _0__15_ d_lut_NAND2X1
AOAI21X1_32 [_375_ _372_ _377_] _10_ d_lut_OAI21X1
AINVX1_17 [w_cout_4_] _382_ d_lut_INVX1
AOR2X2_17 [i_add_term2_16_ i_add_term1_16_] _383_ d_lut_OR2X2
ANAND2X1_33 [i_add_term2_16_ i_add_term1_16_] _384_ d_lut_NAND2X1
ANAND3X1_17 [_382_ _384_ _383_] _385_ d_lut_NAND3X1
ANOR2X1_17 [i_add_term2_16_ i_add_term1_16_] _379_ d_lut_NOR2X1
AAND2X2_17 [i_add_term2_16_ i_add_term1_16_] _380_ d_lut_AND2X2
AOAI21X1_33 [_379_ _380_ w_cout_4_] _381_ d_lut_OAI21X1
ANAND2X1_34 [_381_ _385_] _0__16_ d_lut_NAND2X1
AOAI21X1_34 [_382_ _379_ _384_] _14__1_ d_lut_OAI21X1
AINVX1_18 [_14__1_] _389_ d_lut_INVX1
AOR2X2_18 [i_add_term2_17_ i_add_term1_17_] _390_ d_lut_OR2X2
ANAND2X1_35 [i_add_term2_17_ i_add_term1_17_] _391_ d_lut_NAND2X1
ANAND3X1_18 [_389_ _391_ _390_] _392_ d_lut_NAND3X1
ANOR2X1_18 [i_add_term2_17_ i_add_term1_17_] _386_ d_lut_NOR2X1
AAND2X2_18 [i_add_term2_17_ i_add_term1_17_] _387_ d_lut_AND2X2
AOAI21X1_35 [_386_ _387_ _14__1_] _388_ d_lut_OAI21X1
ANAND2X1_36 [_388_ _392_] _0__17_ d_lut_NAND2X1
AOAI21X1_36 [_389_ _386_ _391_] _14__2_ d_lut_OAI21X1
AINVX1_19 [_14__2_] _396_ d_lut_INVX1
AOR2X2_19 [i_add_term2_18_ i_add_term1_18_] _397_ d_lut_OR2X2
ANAND2X1_37 [i_add_term2_18_ i_add_term1_18_] _398_ d_lut_NAND2X1
ANAND3X1_19 [_396_ _398_ _397_] _399_ d_lut_NAND3X1
ANOR2X1_19 [i_add_term2_18_ i_add_term1_18_] _393_ d_lut_NOR2X1
AAND2X2_19 [i_add_term2_18_ i_add_term1_18_] _394_ d_lut_AND2X2
AOAI21X1_37 [_393_ _394_ _14__2_] _395_ d_lut_OAI21X1
ANAND2X1_38 [_395_ _399_] _0__18_ d_lut_NAND2X1
AOAI21X1_38 [_396_ _393_ _398_] _14__3_ d_lut_OAI21X1
AINVX1_20 [_14__3_] _403_ d_lut_INVX1
AOR2X2_20 [i_add_term2_19_ i_add_term1_19_] _404_ d_lut_OR2X2
ANAND2X1_39 [i_add_term2_19_ i_add_term1_19_] _405_ d_lut_NAND2X1
ANAND3X1_20 [_403_ _405_ _404_] _406_ d_lut_NAND3X1
ANOR2X1_20 [i_add_term2_19_ i_add_term1_19_] _400_ d_lut_NOR2X1
AAND2X2_20 [i_add_term2_19_ i_add_term1_19_] _401_ d_lut_AND2X2
AOAI21X1_39 [_400_ _401_ _14__3_] _402_ d_lut_OAI21X1
ANAND2X1_40 [_402_ _406_] _0__19_ d_lut_NAND2X1
AOAI21X1_40 [_403_ _400_ _405_] _13_ d_lut_OAI21X1
AINVX1_21 [w_cout_5_] _410_ d_lut_INVX1
AOR2X2_21 [i_add_term2_20_ i_add_term1_20_] _411_ d_lut_OR2X2
ANAND2X1_41 [i_add_term2_20_ i_add_term1_20_] _412_ d_lut_NAND2X1
ANAND3X1_21 [_410_ _412_ _411_] _413_ d_lut_NAND3X1
ANOR2X1_21 [i_add_term2_20_ i_add_term1_20_] _407_ d_lut_NOR2X1
AAND2X2_21 [i_add_term2_20_ i_add_term1_20_] _408_ d_lut_AND2X2
AOAI21X1_41 [_407_ _408_ w_cout_5_] _409_ d_lut_OAI21X1
ANAND2X1_42 [_409_ _413_] _0__20_ d_lut_NAND2X1
AOAI21X1_42 [_410_ _407_ _412_] _17__1_ d_lut_OAI21X1
AINVX1_22 [_17__1_] _417_ d_lut_INVX1
AOR2X2_22 [i_add_term2_21_ i_add_term1_21_] _418_ d_lut_OR2X2
ANAND2X1_43 [i_add_term2_21_ i_add_term1_21_] _419_ d_lut_NAND2X1
ANAND3X1_22 [_417_ _419_ _418_] _420_ d_lut_NAND3X1
ANOR2X1_22 [i_add_term2_21_ i_add_term1_21_] _414_ d_lut_NOR2X1
AAND2X2_22 [i_add_term2_21_ i_add_term1_21_] _415_ d_lut_AND2X2
AOAI21X1_43 [_414_ _415_ _17__1_] _416_ d_lut_OAI21X1
ANAND2X1_44 [_416_ _420_] _0__21_ d_lut_NAND2X1
AOAI21X1_44 [_417_ _414_ _419_] _17__2_ d_lut_OAI21X1
AINVX1_23 [_17__2_] _424_ d_lut_INVX1
AOR2X2_23 [i_add_term2_22_ i_add_term1_22_] _425_ d_lut_OR2X2
ANAND2X1_45 [i_add_term2_22_ i_add_term1_22_] _426_ d_lut_NAND2X1
ANAND3X1_23 [_424_ _426_ _425_] _427_ d_lut_NAND3X1
ANOR2X1_23 [i_add_term2_22_ i_add_term1_22_] _421_ d_lut_NOR2X1
AAND2X2_23 [i_add_term2_22_ i_add_term1_22_] _422_ d_lut_AND2X2
AOAI21X1_45 [_421_ _422_ _17__2_] _423_ d_lut_OAI21X1
ANAND2X1_46 [_423_ _427_] _0__22_ d_lut_NAND2X1
AOAI21X1_46 [_424_ _421_ _426_] _17__3_ d_lut_OAI21X1
AINVX1_24 [_17__3_] _431_ d_lut_INVX1
AOR2X2_24 [i_add_term2_23_ i_add_term1_23_] _432_ d_lut_OR2X2
ANAND2X1_47 [i_add_term2_23_ i_add_term1_23_] _433_ d_lut_NAND2X1
ANAND3X1_24 [_431_ _433_ _432_] _434_ d_lut_NAND3X1
ANOR2X1_24 [i_add_term2_23_ i_add_term1_23_] _428_ d_lut_NOR2X1
AAND2X2_24 [i_add_term2_23_ i_add_term1_23_] _429_ d_lut_AND2X2
AOAI21X1_47 [_428_ _429_ _17__3_] _430_ d_lut_OAI21X1
ANAND2X1_48 [_430_ _434_] _0__23_ d_lut_NAND2X1
AOAI21X1_48 [_431_ _428_ _433_] _16_ d_lut_OAI21X1
AINVX1_25 [w_cout_6_] _438_ d_lut_INVX1
AOR2X2_25 [i_add_term2_24_ i_add_term1_24_] _439_ d_lut_OR2X2
ANAND2X1_49 [i_add_term2_24_ i_add_term1_24_] _440_ d_lut_NAND2X1
ANAND3X1_25 [_438_ _440_ _439_] _441_ d_lut_NAND3X1
ANOR2X1_25 [i_add_term2_24_ i_add_term1_24_] _435_ d_lut_NOR2X1
AAND2X2_25 [i_add_term2_24_ i_add_term1_24_] _436_ d_lut_AND2X2
AOAI21X1_49 [_435_ _436_ w_cout_6_] _437_ d_lut_OAI21X1
ANAND2X1_50 [_437_ _441_] _0__24_ d_lut_NAND2X1
AOAI21X1_50 [_438_ _435_ _440_] _20__1_ d_lut_OAI21X1
AINVX1_26 [_20__1_] _445_ d_lut_INVX1
AOR2X2_26 [i_add_term2_25_ i_add_term1_25_] _446_ d_lut_OR2X2
ANAND2X1_51 [i_add_term2_25_ i_add_term1_25_] _447_ d_lut_NAND2X1
ANAND3X1_26 [_445_ _447_ _446_] _448_ d_lut_NAND3X1
ANOR2X1_26 [i_add_term2_25_ i_add_term1_25_] _442_ d_lut_NOR2X1
AAND2X2_26 [i_add_term2_25_ i_add_term1_25_] _443_ d_lut_AND2X2
AOAI21X1_51 [_442_ _443_ _20__1_] _444_ d_lut_OAI21X1
ANAND2X1_52 [_444_ _448_] _0__25_ d_lut_NAND2X1
AOAI21X1_52 [_445_ _442_ _447_] _20__2_ d_lut_OAI21X1
AINVX1_27 [_20__2_] _452_ d_lut_INVX1
AOR2X2_27 [i_add_term2_26_ i_add_term1_26_] _453_ d_lut_OR2X2
ANAND2X1_53 [i_add_term2_26_ i_add_term1_26_] _454_ d_lut_NAND2X1
ANAND3X1_27 [_452_ _454_ _453_] _455_ d_lut_NAND3X1
ANOR2X1_27 [i_add_term2_26_ i_add_term1_26_] _449_ d_lut_NOR2X1
AAND2X2_27 [i_add_term2_26_ i_add_term1_26_] _450_ d_lut_AND2X2
AOAI21X1_53 [_449_ _450_ _20__2_] _451_ d_lut_OAI21X1
ANAND2X1_54 [_451_ _455_] _0__26_ d_lut_NAND2X1
AOAI21X1_54 [_452_ _449_ _454_] _20__3_ d_lut_OAI21X1
AINVX1_28 [_20__3_] _459_ d_lut_INVX1
AOR2X2_28 [i_add_term2_27_ i_add_term1_27_] _460_ d_lut_OR2X2
ANAND2X1_55 [i_add_term2_27_ i_add_term1_27_] _461_ d_lut_NAND2X1
ANAND3X1_28 [_459_ _461_ _460_] _462_ d_lut_NAND3X1
ANOR2X1_28 [i_add_term2_27_ i_add_term1_27_] _456_ d_lut_NOR2X1
AAND2X2_28 [i_add_term2_27_ i_add_term1_27_] _457_ d_lut_AND2X2
AOAI21X1_55 [_456_ _457_ _20__3_] _458_ d_lut_OAI21X1
ANAND2X1_56 [_458_ _462_] _0__27_ d_lut_NAND2X1
AOAI21X1_56 [_459_ _456_ _461_] _19_ d_lut_OAI21X1
AINVX1_29 [w_cout_7_] _466_ d_lut_INVX1
AOR2X2_29 [i_add_term2_28_ i_add_term1_28_] _467_ d_lut_OR2X2
ANAND2X1_57 [i_add_term2_28_ i_add_term1_28_] _468_ d_lut_NAND2X1
ANAND3X1_29 [_466_ _468_ _467_] _469_ d_lut_NAND3X1
ANOR2X1_29 [i_add_term2_28_ i_add_term1_28_] _463_ d_lut_NOR2X1
AAND2X2_29 [i_add_term2_28_ i_add_term1_28_] _464_ d_lut_AND2X2
AOAI21X1_57 [_463_ _464_ w_cout_7_] _465_ d_lut_OAI21X1
ANAND2X1_58 [_465_ _469_] _0__28_ d_lut_NAND2X1
AOAI21X1_58 [_466_ _463_ _468_] _23__1_ d_lut_OAI21X1
AINVX1_30 [_23__1_] _473_ d_lut_INVX1
AOR2X2_30 [i_add_term2_29_ i_add_term1_29_] _474_ d_lut_OR2X2
ANAND2X1_59 [i_add_term2_29_ i_add_term1_29_] _475_ d_lut_NAND2X1
ANAND3X1_30 [_473_ _475_ _474_] _476_ d_lut_NAND3X1
ANOR2X1_30 [i_add_term2_29_ i_add_term1_29_] _470_ d_lut_NOR2X1
AAND2X2_30 [i_add_term2_29_ i_add_term1_29_] _471_ d_lut_AND2X2
AOAI21X1_59 [_470_ _471_ _23__1_] _472_ d_lut_OAI21X1
ANAND2X1_60 [_472_ _476_] _0__29_ d_lut_NAND2X1
AOAI21X1_60 [_473_ _470_ _475_] _23__2_ d_lut_OAI21X1
AINVX1_31 [_23__2_] _480_ d_lut_INVX1
AOR2X2_31 [i_add_term2_30_ i_add_term1_30_] _481_ d_lut_OR2X2
ANAND2X1_61 [i_add_term2_30_ i_add_term1_30_] _482_ d_lut_NAND2X1
ANAND3X1_31 [_480_ _482_ _481_] _483_ d_lut_NAND3X1
ANOR2X1_31 [i_add_term2_30_ i_add_term1_30_] _477_ d_lut_NOR2X1
AAND2X2_31 [i_add_term2_30_ i_add_term1_30_] _478_ d_lut_AND2X2
AOAI21X1_61 [_477_ _478_ _23__2_] _479_ d_lut_OAI21X1
ANAND2X1_62 [_479_ _483_] _0__30_ d_lut_NAND2X1
AOAI21X1_62 [_480_ _477_ _482_] _23__3_ d_lut_OAI21X1
AINVX1_32 [_23__3_] _487_ d_lut_INVX1
AOR2X2_32 [i_add_term2_31_ i_add_term1_31_] _488_ d_lut_OR2X2
ANAND2X1_63 [i_add_term2_31_ i_add_term1_31_] _489_ d_lut_NAND2X1
ANAND3X1_32 [_487_ _489_ _488_] _490_ d_lut_NAND3X1
ANOR2X1_32 [i_add_term2_31_ i_add_term1_31_] _484_ d_lut_NOR2X1
AAND2X2_32 [i_add_term2_31_ i_add_term1_31_] _485_ d_lut_AND2X2
AOAI21X1_63 [_484_ _485_ _23__3_] _486_ d_lut_OAI21X1
ANAND2X1_64 [_486_ _490_] _0__31_ d_lut_NAND2X1
AOAI21X1_64 [_487_ _484_ _489_] _22_ d_lut_OAI21X1
AINVX1_33 [w_cout_8_] _494_ d_lut_INVX1
AOR2X2_33 [i_add_term2_32_ i_add_term1_32_] _495_ d_lut_OR2X2
ANAND2X1_65 [i_add_term2_32_ i_add_term1_32_] _496_ d_lut_NAND2X1
ANAND3X1_33 [_494_ _496_ _495_] _497_ d_lut_NAND3X1
ANOR2X1_33 [i_add_term2_32_ i_add_term1_32_] _491_ d_lut_NOR2X1
AAND2X2_33 [i_add_term2_32_ i_add_term1_32_] _492_ d_lut_AND2X2
AOAI21X1_65 [_491_ _492_ w_cout_8_] _493_ d_lut_OAI21X1
ANAND2X1_66 [_493_ _497_] _0__32_ d_lut_NAND2X1
AOAI21X1_66 [_494_ _491_ _496_] _26__1_ d_lut_OAI21X1
AINVX1_34 [_26__1_] _501_ d_lut_INVX1
AOR2X2_34 [i_add_term2_33_ i_add_term1_33_] _502_ d_lut_OR2X2
ANAND2X1_67 [i_add_term2_33_ i_add_term1_33_] _503_ d_lut_NAND2X1
ANAND3X1_34 [_501_ _503_ _502_] _504_ d_lut_NAND3X1
ANOR2X1_34 [i_add_term2_33_ i_add_term1_33_] _498_ d_lut_NOR2X1
AAND2X2_34 [i_add_term2_33_ i_add_term1_33_] _499_ d_lut_AND2X2
AOAI21X1_67 [_498_ _499_ _26__1_] _500_ d_lut_OAI21X1
ANAND2X1_68 [_500_ _504_] _0__33_ d_lut_NAND2X1
AOAI21X1_68 [_501_ _498_ _503_] _26__2_ d_lut_OAI21X1
AINVX1_35 [_26__2_] _508_ d_lut_INVX1
AOR2X2_35 [i_add_term2_34_ i_add_term1_34_] _509_ d_lut_OR2X2
ANAND2X1_69 [i_add_term2_34_ i_add_term1_34_] _510_ d_lut_NAND2X1
ANAND3X1_35 [_508_ _510_ _509_] _511_ d_lut_NAND3X1
ANOR2X1_35 [i_add_term2_34_ i_add_term1_34_] _505_ d_lut_NOR2X1
AAND2X2_35 [i_add_term2_34_ i_add_term1_34_] _506_ d_lut_AND2X2
AOAI21X1_69 [_505_ _506_ _26__2_] _507_ d_lut_OAI21X1
ANAND2X1_70 [_507_ _511_] _0__34_ d_lut_NAND2X1
AOAI21X1_70 [_508_ _505_ _510_] _26__3_ d_lut_OAI21X1
AINVX1_36 [_26__3_] _515_ d_lut_INVX1
AOR2X2_36 [i_add_term2_35_ i_add_term1_35_] _516_ d_lut_OR2X2
ANAND2X1_71 [i_add_term2_35_ i_add_term1_35_] _517_ d_lut_NAND2X1
ANAND3X1_36 [_515_ _517_ _516_] _518_ d_lut_NAND3X1
ANOR2X1_36 [i_add_term2_35_ i_add_term1_35_] _512_ d_lut_NOR2X1
AAND2X2_36 [i_add_term2_35_ i_add_term1_35_] _513_ d_lut_AND2X2
AOAI21X1_71 [_512_ _513_ _26__3_] _514_ d_lut_OAI21X1
ANAND2X1_72 [_514_ _518_] _0__35_ d_lut_NAND2X1
AOAI21X1_72 [_515_ _512_ _517_] _25_ d_lut_OAI21X1
AINVX1_37 [w_cout_9_] _522_ d_lut_INVX1
AOR2X2_37 [i_add_term2_36_ i_add_term1_36_] _523_ d_lut_OR2X2
ANAND2X1_73 [i_add_term2_36_ i_add_term1_36_] _524_ d_lut_NAND2X1
ANAND3X1_37 [_522_ _524_ _523_] _525_ d_lut_NAND3X1
ANOR2X1_37 [i_add_term2_36_ i_add_term1_36_] _519_ d_lut_NOR2X1
AAND2X2_37 [i_add_term2_36_ i_add_term1_36_] _520_ d_lut_AND2X2
AOAI21X1_73 [_519_ _520_ w_cout_9_] _521_ d_lut_OAI21X1
ANAND2X1_74 [_521_ _525_] _0__36_ d_lut_NAND2X1
AOAI21X1_74 [_522_ _519_ _524_] _29__1_ d_lut_OAI21X1
AINVX1_38 [_29__1_] _529_ d_lut_INVX1
AOR2X2_38 [i_add_term2_37_ i_add_term1_37_] _530_ d_lut_OR2X2
ANAND2X1_75 [i_add_term2_37_ i_add_term1_37_] _531_ d_lut_NAND2X1
ANAND3X1_38 [_529_ _531_ _530_] _532_ d_lut_NAND3X1
ANOR2X1_38 [i_add_term2_37_ i_add_term1_37_] _526_ d_lut_NOR2X1
AAND2X2_38 [i_add_term2_37_ i_add_term1_37_] _527_ d_lut_AND2X2
AOAI21X1_75 [_526_ _527_ _29__1_] _528_ d_lut_OAI21X1
ANAND2X1_76 [_528_ _532_] _0__37_ d_lut_NAND2X1
AOAI21X1_76 [_529_ _526_ _531_] _29__2_ d_lut_OAI21X1
AINVX1_39 [_29__2_] _536_ d_lut_INVX1
AOR2X2_39 [i_add_term2_38_ i_add_term1_38_] _537_ d_lut_OR2X2
ANAND2X1_77 [i_add_term2_38_ i_add_term1_38_] _538_ d_lut_NAND2X1
ANAND3X1_39 [_536_ _538_ _537_] _539_ d_lut_NAND3X1
ANOR2X1_39 [i_add_term2_38_ i_add_term1_38_] _533_ d_lut_NOR2X1
AAND2X2_39 [i_add_term2_38_ i_add_term1_38_] _534_ d_lut_AND2X2
AOAI21X1_77 [_533_ _534_ _29__2_] _535_ d_lut_OAI21X1
ANAND2X1_78 [_535_ _539_] _0__38_ d_lut_NAND2X1
AOAI21X1_78 [_536_ _533_ _538_] _29__3_ d_lut_OAI21X1
AINVX1_40 [_29__3_] _543_ d_lut_INVX1
AOR2X2_40 [i_add_term2_39_ i_add_term1_39_] _544_ d_lut_OR2X2
ANAND2X1_79 [i_add_term2_39_ i_add_term1_39_] _545_ d_lut_NAND2X1
ANAND3X1_40 [_543_ _545_ _544_] _546_ d_lut_NAND3X1
ANOR2X1_40 [i_add_term2_39_ i_add_term1_39_] _540_ d_lut_NOR2X1
AAND2X2_40 [i_add_term2_39_ i_add_term1_39_] _541_ d_lut_AND2X2
AOAI21X1_79 [_540_ _541_ _29__3_] _542_ d_lut_OAI21X1
ANAND2X1_80 [_542_ _546_] _0__39_ d_lut_NAND2X1
AOAI21X1_80 [_543_ _540_ _545_] _28_ d_lut_OAI21X1
AINVX1_41 [w_cout_10_] _550_ d_lut_INVX1
AOR2X2_41 [i_add_term2_40_ i_add_term1_40_] _551_ d_lut_OR2X2
ANAND2X1_81 [i_add_term2_40_ i_add_term1_40_] _552_ d_lut_NAND2X1
ANAND3X1_41 [_550_ _552_ _551_] _553_ d_lut_NAND3X1
ANOR2X1_41 [i_add_term2_40_ i_add_term1_40_] _547_ d_lut_NOR2X1
AAND2X2_41 [i_add_term2_40_ i_add_term1_40_] _548_ d_lut_AND2X2
AOAI21X1_81 [_547_ _548_ w_cout_10_] _549_ d_lut_OAI21X1
ANAND2X1_82 [_549_ _553_] _0__40_ d_lut_NAND2X1
AOAI21X1_82 [_550_ _547_ _552_] _32__1_ d_lut_OAI21X1
AINVX1_42 [_32__1_] _557_ d_lut_INVX1
AOR2X2_42 [i_add_term2_41_ i_add_term1_41_] _558_ d_lut_OR2X2
ANAND2X1_83 [i_add_term2_41_ i_add_term1_41_] _559_ d_lut_NAND2X1
ANAND3X1_42 [_557_ _559_ _558_] _560_ d_lut_NAND3X1
ANOR2X1_42 [i_add_term2_41_ i_add_term1_41_] _554_ d_lut_NOR2X1
AAND2X2_42 [i_add_term2_41_ i_add_term1_41_] _555_ d_lut_AND2X2
AOAI21X1_83 [_554_ _555_ _32__1_] _556_ d_lut_OAI21X1
ANAND2X1_84 [_556_ _560_] _0__41_ d_lut_NAND2X1
AOAI21X1_84 [_557_ _554_ _559_] _32__2_ d_lut_OAI21X1
AINVX1_43 [_32__2_] _564_ d_lut_INVX1
AOR2X2_43 [i_add_term2_42_ i_add_term1_42_] _565_ d_lut_OR2X2
ANAND2X1_85 [i_add_term2_42_ i_add_term1_42_] _566_ d_lut_NAND2X1
ANAND3X1_43 [_564_ _566_ _565_] _567_ d_lut_NAND3X1
ANOR2X1_43 [i_add_term2_42_ i_add_term1_42_] _561_ d_lut_NOR2X1
AAND2X2_43 [i_add_term2_42_ i_add_term1_42_] _562_ d_lut_AND2X2
AOAI21X1_85 [_561_ _562_ _32__2_] _563_ d_lut_OAI21X1
ANAND2X1_86 [_563_ _567_] _0__42_ d_lut_NAND2X1
AOAI21X1_86 [_564_ _561_ _566_] _32__3_ d_lut_OAI21X1
AINVX1_44 [_32__3_] _571_ d_lut_INVX1
AOR2X2_44 [i_add_term2_43_ i_add_term1_43_] _572_ d_lut_OR2X2
ANAND2X1_87 [i_add_term2_43_ i_add_term1_43_] _573_ d_lut_NAND2X1
ANAND3X1_44 [_571_ _573_ _572_] _574_ d_lut_NAND3X1
ANOR2X1_44 [i_add_term2_43_ i_add_term1_43_] _568_ d_lut_NOR2X1
AAND2X2_44 [i_add_term2_43_ i_add_term1_43_] _569_ d_lut_AND2X2
AOAI21X1_87 [_568_ _569_ _32__3_] _570_ d_lut_OAI21X1
ANAND2X1_88 [_570_ _574_] _0__43_ d_lut_NAND2X1
AOAI21X1_88 [_571_ _568_ _573_] _31_ d_lut_OAI21X1
AINVX1_45 [w_cout_11_] _578_ d_lut_INVX1
AOR2X2_45 [i_add_term2_44_ i_add_term1_44_] _579_ d_lut_OR2X2
ANAND2X1_89 [i_add_term2_44_ i_add_term1_44_] _580_ d_lut_NAND2X1
ANAND3X1_45 [_578_ _580_ _579_] _581_ d_lut_NAND3X1
ANOR2X1_45 [i_add_term2_44_ i_add_term1_44_] _575_ d_lut_NOR2X1
AAND2X2_45 [i_add_term2_44_ i_add_term1_44_] _576_ d_lut_AND2X2
AOAI21X1_89 [_575_ _576_ w_cout_11_] _577_ d_lut_OAI21X1
ANAND2X1_90 [_577_ _581_] _0__44_ d_lut_NAND2X1
AOAI21X1_90 [_578_ _575_ _580_] _35__1_ d_lut_OAI21X1
AINVX1_46 [_35__1_] _585_ d_lut_INVX1
AOR2X2_46 [i_add_term2_45_ i_add_term1_45_] _586_ d_lut_OR2X2
ANAND2X1_91 [i_add_term2_45_ i_add_term1_45_] _587_ d_lut_NAND2X1
ANAND3X1_46 [_585_ _587_ _586_] _588_ d_lut_NAND3X1
ANOR2X1_46 [i_add_term2_45_ i_add_term1_45_] _582_ d_lut_NOR2X1
AAND2X2_46 [i_add_term2_45_ i_add_term1_45_] _583_ d_lut_AND2X2
AOAI21X1_91 [_582_ _583_ _35__1_] _584_ d_lut_OAI21X1
ANAND2X1_92 [_584_ _588_] _0__45_ d_lut_NAND2X1
AOAI21X1_92 [_585_ _582_ _587_] _35__2_ d_lut_OAI21X1
AINVX1_47 [_35__2_] _592_ d_lut_INVX1
AOR2X2_47 [i_add_term2_46_ i_add_term1_46_] _593_ d_lut_OR2X2
ANAND2X1_93 [i_add_term2_46_ i_add_term1_46_] _594_ d_lut_NAND2X1
ANAND3X1_47 [_592_ _594_ _593_] _595_ d_lut_NAND3X1
ANOR2X1_47 [i_add_term2_46_ i_add_term1_46_] _589_ d_lut_NOR2X1
AAND2X2_47 [i_add_term2_46_ i_add_term1_46_] _590_ d_lut_AND2X2
AOAI21X1_93 [_589_ _590_ _35__2_] _591_ d_lut_OAI21X1
ANAND2X1_94 [_591_ _595_] _0__46_ d_lut_NAND2X1
AOAI21X1_94 [_592_ _589_ _594_] _35__3_ d_lut_OAI21X1
AINVX1_48 [_35__3_] _599_ d_lut_INVX1
AOR2X2_48 [i_add_term2_47_ i_add_term1_47_] _600_ d_lut_OR2X2
ANAND2X1_95 [i_add_term2_47_ i_add_term1_47_] _601_ d_lut_NAND2X1
ANAND3X1_48 [_599_ _601_ _600_] _602_ d_lut_NAND3X1
ANOR2X1_48 [i_add_term2_47_ i_add_term1_47_] _596_ d_lut_NOR2X1
AAND2X2_48 [i_add_term2_47_ i_add_term1_47_] _597_ d_lut_AND2X2
AOAI21X1_95 [_596_ _597_ _35__3_] _598_ d_lut_OAI21X1
ANAND2X1_96 [_598_ _602_] _0__47_ d_lut_NAND2X1
AOAI21X1_96 [_599_ _596_ _601_] _34_ d_lut_OAI21X1
AINVX1_49 [w_cout_12_] _606_ d_lut_INVX1
AOR2X2_49 [i_add_term2_48_ i_add_term1_48_] _607_ d_lut_OR2X2
ANAND2X1_97 [i_add_term2_48_ i_add_term1_48_] _608_ d_lut_NAND2X1
ANAND3X1_49 [_606_ _608_ _607_] _609_ d_lut_NAND3X1
ANOR2X1_49 [i_add_term2_48_ i_add_term1_48_] _603_ d_lut_NOR2X1
AAND2X2_49 [i_add_term2_48_ i_add_term1_48_] _604_ d_lut_AND2X2
AOAI21X1_97 [_603_ _604_ w_cout_12_] _605_ d_lut_OAI21X1
ANAND2X1_98 [_605_ _609_] _0__48_ d_lut_NAND2X1
AOAI21X1_98 [_606_ _603_ _608_] _38__1_ d_lut_OAI21X1
AINVX1_50 [_38__1_] _613_ d_lut_INVX1
AOR2X2_50 [i_add_term2_49_ i_add_term1_49_] _614_ d_lut_OR2X2
ANAND2X1_99 [i_add_term2_49_ i_add_term1_49_] _615_ d_lut_NAND2X1
ANAND3X1_50 [_613_ _615_ _614_] _616_ d_lut_NAND3X1
ANOR2X1_50 [i_add_term2_49_ i_add_term1_49_] _610_ d_lut_NOR2X1
AAND2X2_50 [i_add_term2_49_ i_add_term1_49_] _611_ d_lut_AND2X2
AOAI21X1_99 [_610_ _611_ _38__1_] _612_ d_lut_OAI21X1
ANAND2X1_100 [_612_ _616_] _0__49_ d_lut_NAND2X1
AOAI21X1_100 [_613_ _610_ _615_] _38__2_ d_lut_OAI21X1
AINVX1_51 [_38__2_] _620_ d_lut_INVX1
AOR2X2_51 [i_add_term2_50_ i_add_term1_50_] _621_ d_lut_OR2X2
ANAND2X1_101 [i_add_term2_50_ i_add_term1_50_] _622_ d_lut_NAND2X1
ANAND3X1_51 [_620_ _622_ _621_] _623_ d_lut_NAND3X1
ANOR2X1_51 [i_add_term2_50_ i_add_term1_50_] _617_ d_lut_NOR2X1
AAND2X2_51 [i_add_term2_50_ i_add_term1_50_] _618_ d_lut_AND2X2
AOAI21X1_101 [_617_ _618_ _38__2_] _619_ d_lut_OAI21X1
ANAND2X1_102 [_619_ _623_] _0__50_ d_lut_NAND2X1
AOAI21X1_102 [_620_ _617_ _622_] _38__3_ d_lut_OAI21X1
AINVX1_52 [_38__3_] _627_ d_lut_INVX1
AOR2X2_52 [i_add_term2_51_ i_add_term1_51_] _628_ d_lut_OR2X2
ANAND2X1_103 [i_add_term2_51_ i_add_term1_51_] _629_ d_lut_NAND2X1
ANAND3X1_52 [_627_ _629_ _628_] _630_ d_lut_NAND3X1
ANOR2X1_52 [i_add_term2_51_ i_add_term1_51_] _624_ d_lut_NOR2X1
AAND2X2_52 [i_add_term2_51_ i_add_term1_51_] _625_ d_lut_AND2X2
AOAI21X1_103 [_624_ _625_ _38__3_] _626_ d_lut_OAI21X1
ANAND2X1_104 [_626_ _630_] _0__51_ d_lut_NAND2X1
AOAI21X1_104 [_627_ _624_ _629_] _37_ d_lut_OAI21X1
AINVX1_53 [w_cout_13_] _634_ d_lut_INVX1
AOR2X2_53 [i_add_term2_52_ i_add_term1_52_] _635_ d_lut_OR2X2
ANAND2X1_105 [i_add_term2_52_ i_add_term1_52_] _636_ d_lut_NAND2X1
ANAND3X1_53 [_634_ _636_ _635_] _637_ d_lut_NAND3X1
ANOR2X1_53 [i_add_term2_52_ i_add_term1_52_] _631_ d_lut_NOR2X1
AAND2X2_53 [i_add_term2_52_ i_add_term1_52_] _632_ d_lut_AND2X2
AOAI21X1_105 [_631_ _632_ w_cout_13_] _633_ d_lut_OAI21X1
ANAND2X1_106 [_633_ _637_] _0__52_ d_lut_NAND2X1
AOAI21X1_106 [_634_ _631_ _636_] _41__1_ d_lut_OAI21X1
AINVX1_54 [_41__1_] _641_ d_lut_INVX1
AOR2X2_54 [i_add_term2_53_ i_add_term1_53_] _642_ d_lut_OR2X2
ANAND2X1_107 [i_add_term2_53_ i_add_term1_53_] _643_ d_lut_NAND2X1
ANAND3X1_54 [_641_ _643_ _642_] _644_ d_lut_NAND3X1
ANOR2X1_54 [i_add_term2_53_ i_add_term1_53_] _638_ d_lut_NOR2X1
AAND2X2_54 [i_add_term2_53_ i_add_term1_53_] _639_ d_lut_AND2X2
AOAI21X1_107 [_638_ _639_ _41__1_] _640_ d_lut_OAI21X1
ANAND2X1_108 [_640_ _644_] _0__53_ d_lut_NAND2X1
AOAI21X1_108 [_641_ _638_ _643_] _41__2_ d_lut_OAI21X1
AINVX1_55 [_41__2_] _648_ d_lut_INVX1
AOR2X2_55 [i_add_term2_54_ i_add_term1_54_] _649_ d_lut_OR2X2
ANAND2X1_109 [i_add_term2_54_ i_add_term1_54_] _650_ d_lut_NAND2X1
ANAND3X1_55 [_648_ _650_ _649_] _651_ d_lut_NAND3X1