*SPICE netlist created from BLIF module CSkipA_57bit by blif2BSpice
.include /usr/local/share/qflow/tech/osu035/osu035_stdcells.sp
.subckt CSkipA_57bit vdd gnd i_add_term1[0] i_add_term1[1] i_add_term1[2] i_add_term1[3] i_add_term1[4] i_add_term1[5] i_add_term1[6] i_add_term1[7] i_add_term1[8] i_add_term1[9] i_add_term1[10] i_add_term1[11] i_add_term1[12] i_add_term1[13] i_add_term1[14] i_add_term1[15] i_add_term1[16] i_add_term1[17] i_add_term1[18] i_add_term1[19] i_add_term1[20] i_add_term1[21] i_add_term1[22] i_add_term1[23] i_add_term1[24] i_add_term1[25] i_add_term1[26] i_add_term1[27] i_add_term1[28] i_add_term1[29] i_add_term1[30] i_add_term1[31] i_add_term1[32] i_add_term1[33] i_add_term1[34] i_add_term1[35] i_add_term1[36] i_add_term1[37] i_add_term1[38] i_add_term1[39] i_add_term1[40] i_add_term1[41] i_add_term1[42] i_add_term1[43] i_add_term1[44] i_add_term1[45] i_add_term1[46] i_add_term1[47] i_add_term1[48] i_add_term1[49] i_add_term1[50] i_add_term1[51] i_add_term1[52] i_add_term1[53] i_add_term1[54] i_add_term1[55] i_add_term1[56] i_add_term2[0] i_add_term2[1] i_add_term2[2] i_add_term2[3] i_add_term2[4] i_add_term2[5] i_add_term2[6] i_add_term2[7] i_add_term2[8] i_add_term2[9] i_add_term2[10] i_add_term2[11] i_add_term2[12] i_add_term2[13] i_add_term2[14] i_add_term2[15] i_add_term2[16] i_add_term2[17] i_add_term2[18] i_add_term2[19] i_add_term2[20] i_add_term2[21] i_add_term2[22] i_add_term2[23] i_add_term2[24] i_add_term2[25] i_add_term2[26] i_add_term2[27] i_add_term2[28] i_add_term2[29] i_add_term2[30] i_add_term2[31] i_add_term2[32] i_add_term2[33] i_add_term2[34] i_add_term2[35] i_add_term2[36] i_add_term2[37] i_add_term2[38] i_add_term2[39] i_add_term2[40] i_add_term2[41] i_add_term2[42] i_add_term2[43] i_add_term2[44] i_add_term2[45] i_add_term2[46] i_add_term2[47] i_add_term2[48] i_add_term2[49] i_add_term2[50] i_add_term2[51] i_add_term2[52] i_add_term2[53] i_add_term2[54] i_add_term2[55] i_add_term2[56] sum[0] sum[1] sum[2] sum[3] sum[4] sum[5] sum[6] sum[7] sum[8] sum[9] sum[10] sum[11] sum[12] sum[13] sum[14] sum[15] sum[16] sum[17] sum[18] sum[19] sum[20] sum[21] sum[22] sum[23] sum[24] sum[25] sum[26] sum[27] sum[28] sum[29] sum[30] sum[31] sum[32] sum[33] sum[34] sum[35] sum[36] sum[37] sum[38] sum[39] sum[40] sum[41] sum[42] sum[43] sum[44] sum[45] sum[46] sum[47] sum[48] sum[49] sum[50] sum[51] sum[52] sum[53] sum[54] sum[55] sum[56] cout 
XNAND2X1_1 vdd _279_ gnd i_add_term2[1] i_add_term1[1] NAND2X1
XNAND3X1_1 _279_ vdd gnd _277_ _278_ _280_ NAND3X1
XNOR2X1_1 vdd i_add_term1[1] gnd _274_ i_add_term2[1] NOR2X1
XAND2X2_1 vdd gnd i_add_term2[1] i_add_term1[1] _275_ AND2X2
XOAI21X1_1 gnd vdd _274_ _275_ _276_ _2_[1] OAI21X1
XNAND2X1_2 vdd _0_[1] gnd _276_ _280_ NAND2X1
XOAI21X1_2 gnd vdd _277_ _274_ _2_[2] _279_ OAI21X1
XINVX1_1 _2_[2] _284_ vdd gnd INVX1
XOR2X2_1 _285_ i_add_term1[2] vdd gnd i_add_term2[2] OR2X2
XNAND2X1_3 vdd _286_ gnd i_add_term2[2] i_add_term1[2] NAND2X1
XNAND3X1_2 _286_ vdd gnd _284_ _285_ _287_ NAND3X1
XNOR2X1_2 vdd i_add_term1[2] gnd _281_ i_add_term2[2] NOR2X1
XAND2X2_2 vdd gnd i_add_term2[2] i_add_term1[2] _282_ AND2X2
XOAI21X1_3 gnd vdd _281_ _282_ _283_ _2_[2] OAI21X1
XNAND2X1_4 vdd _0_[2] gnd _283_ _287_ NAND2X1
XOAI21X1_4 gnd vdd _284_ _281_ _2_[3] _286_ OAI21X1
XINVX1_2 _2_[3] _291_ vdd gnd INVX1
XOR2X2_2 _292_ i_add_term1[3] vdd gnd i_add_term2[3] OR2X2
XNAND2X1_5 vdd _293_ gnd i_add_term2[3] i_add_term1[3] NAND2X1
XNAND3X1_3 _293_ vdd gnd _291_ _292_ _294_ NAND3X1
XNOR2X1_3 vdd i_add_term1[3] gnd _288_ i_add_term2[3] NOR2X1
XAND2X2_3 vdd gnd i_add_term2[3] i_add_term1[3] _289_ AND2X2
XOAI21X1_5 gnd vdd _288_ _289_ _290_ _2_[3] OAI21X1
XNAND2X1_6 vdd _0_[3] gnd _290_ _294_ NAND2X1
XOAI21X1_6 gnd vdd _291_ _288_ _1_ _293_ OAI21X1
XINVX1_3 w_cout[1] _298_ vdd gnd INVX1
XOR2X2_3 _299_ i_add_term1[4] vdd gnd i_add_term2[4] OR2X2
XNAND2X1_7 vdd _300_ gnd i_add_term2[4] i_add_term1[4] NAND2X1
XNAND3X1_4 _300_ vdd gnd _298_ _299_ _301_ NAND3X1
XNOR2X1_4 vdd i_add_term1[4] gnd _295_ i_add_term2[4] NOR2X1
XAND2X2_4 vdd gnd i_add_term2[4] i_add_term1[4] _296_ AND2X2
XOAI21X1_7 gnd vdd _295_ _296_ _297_ w_cout[1] OAI21X1
XNAND2X1_8 vdd _0_[4] gnd _297_ _301_ NAND2X1
XOAI21X1_8 gnd vdd _298_ _295_ _5_[1] _300_ OAI21X1
XINVX1_4 _5_[1] _305_ vdd gnd INVX1
XOR2X2_4 _306_ i_add_term1[5] vdd gnd i_add_term2[5] OR2X2
XNAND2X1_9 vdd _307_ gnd i_add_term2[5] i_add_term1[5] NAND2X1
XNAND3X1_5 _307_ vdd gnd _305_ _306_ _308_ NAND3X1
XNOR2X1_5 vdd i_add_term1[5] gnd _302_ i_add_term2[5] NOR2X1
XAND2X2_5 vdd gnd i_add_term2[5] i_add_term1[5] _303_ AND2X2
XOAI21X1_9 gnd vdd _302_ _303_ _304_ _5_[1] OAI21X1
XNAND2X1_10 vdd _0_[5] gnd _304_ _308_ NAND2X1
XOAI21X1_10 gnd vdd _305_ _302_ _5_[2] _307_ OAI21X1
XINVX1_5 _5_[2] _312_ vdd gnd INVX1
XOR2X2_5 _313_ i_add_term1[6] vdd gnd i_add_term2[6] OR2X2
XNAND2X1_11 vdd _314_ gnd i_add_term2[6] i_add_term1[6] NAND2X1
XNAND3X1_6 _314_ vdd gnd _312_ _313_ _315_ NAND3X1
XNOR2X1_6 vdd i_add_term1[6] gnd _309_ i_add_term2[6] NOR2X1
XAND2X2_6 vdd gnd i_add_term2[6] i_add_term1[6] _310_ AND2X2
XOAI21X1_11 gnd vdd _309_ _310_ _311_ _5_[2] OAI21X1
XNAND2X1_12 vdd _0_[6] gnd _311_ _315_ NAND2X1
XOAI21X1_12 gnd vdd _312_ _309_ _5_[3] _314_ OAI21X1
XINVX1_6 _5_[3] _319_ vdd gnd INVX1
XOR2X2_6 _320_ i_add_term1[7] vdd gnd i_add_term2[7] OR2X2
XNAND2X1_13 vdd _321_ gnd i_add_term2[7] i_add_term1[7] NAND2X1
XNAND3X1_7 _321_ vdd gnd _319_ _320_ _322_ NAND3X1
XNOR2X1_7 vdd i_add_term1[7] gnd _316_ i_add_term2[7] NOR2X1
XAND2X2_7 vdd gnd i_add_term2[7] i_add_term1[7] _317_ AND2X2
XOAI21X1_13 gnd vdd _316_ _317_ _318_ _5_[3] OAI21X1
XNAND2X1_14 vdd _0_[7] gnd _318_ _322_ NAND2X1
XOAI21X1_14 gnd vdd _319_ _316_ _4_ _321_ OAI21X1
XINVX1_7 w_cout[2] _326_ vdd gnd INVX1
XOR2X2_7 _327_ i_add_term1[8] vdd gnd i_add_term2[8] OR2X2
XNAND2X1_15 vdd _328_ gnd i_add_term2[8] i_add_term1[8] NAND2X1
XNAND3X1_8 _328_ vdd gnd _326_ _327_ _329_ NAND3X1
XNOR2X1_8 vdd i_add_term1[8] gnd _323_ i_add_term2[8] NOR2X1
XAND2X2_8 vdd gnd i_add_term2[8] i_add_term1[8] _324_ AND2X2
XOAI21X1_15 gnd vdd _323_ _324_ _325_ w_cout[2] OAI21X1
XNAND2X1_16 vdd _0_[8] gnd _325_ _329_ NAND2X1
XOAI21X1_16 gnd vdd _326_ _323_ _8_[1] _328_ OAI21X1
XINVX1_8 _8_[1] _333_ vdd gnd INVX1
XOR2X2_8 _334_ i_add_term1[9] vdd gnd i_add_term2[9] OR2X2
XNAND2X1_17 vdd _335_ gnd i_add_term2[9] i_add_term1[9] NAND2X1
XNAND3X1_9 _335_ vdd gnd _333_ _334_ _336_ NAND3X1
XNOR2X1_9 vdd i_add_term1[9] gnd _330_ i_add_term2[9] NOR2X1
XAND2X2_9 vdd gnd i_add_term2[9] i_add_term1[9] _331_ AND2X2
XOAI21X1_17 gnd vdd _330_ _331_ _332_ _8_[1] OAI21X1
XNAND2X1_18 vdd _0_[9] gnd _332_ _336_ NAND2X1
XOAI21X1_18 gnd vdd _333_ _330_ _8_[2] _335_ OAI21X1
XINVX1_9 _8_[2] _340_ vdd gnd INVX1
XOR2X2_9 _341_ i_add_term1[10] vdd gnd i_add_term2[10] OR2X2
XNAND2X1_19 vdd _342_ gnd i_add_term2[10] i_add_term1[10] NAND2X1
XNAND3X1_10 _342_ vdd gnd _340_ _341_ _343_ NAND3X1
XNOR2X1_10 vdd i_add_term1[10] gnd _337_ i_add_term2[10] NOR2X1
XAND2X2_10 vdd gnd i_add_term2[10] i_add_term1[10] _338_ AND2X2
XOAI21X1_19 gnd vdd _337_ _338_ _339_ _8_[2] OAI21X1
XNAND2X1_20 vdd _0_[10] gnd _339_ _343_ NAND2X1
XOAI21X1_20 gnd vdd _340_ _337_ _8_[3] _342_ OAI21X1
XINVX1_10 _8_[3] _347_ vdd gnd INVX1
XOR2X2_10 _348_ i_add_term1[11] vdd gnd i_add_term2[11] OR2X2
XNAND2X1_21 vdd _349_ gnd i_add_term2[11] i_add_term1[11] NAND2X1
XNAND3X1_11 _349_ vdd gnd _347_ _348_ _350_ NAND3X1
XNOR2X1_11 vdd i_add_term1[11] gnd _344_ i_add_term2[11] NOR2X1
XAND2X2_11 vdd gnd i_add_term2[11] i_add_term1[11] _345_ AND2X2
XOAI21X1_21 gnd vdd _344_ _345_ _346_ _8_[3] OAI21X1
XNAND2X1_22 vdd _0_[11] gnd _346_ _350_ NAND2X1
XOAI21X1_22 gnd vdd _347_ _344_ _7_ _349_ OAI21X1
XINVX1_11 w_cout[3] _354_ vdd gnd INVX1
XOR2X2_11 _355_ i_add_term1[12] vdd gnd i_add_term2[12] OR2X2
XNAND2X1_23 vdd _356_ gnd i_add_term2[12] i_add_term1[12] NAND2X1
XNAND3X1_12 _356_ vdd gnd _354_ _355_ _357_ NAND3X1
XNOR2X1_12 vdd i_add_term1[12] gnd _351_ i_add_term2[12] NOR2X1
XAND2X2_12 vdd gnd i_add_term2[12] i_add_term1[12] _352_ AND2X2
XOAI21X1_23 gnd vdd _351_ _352_ _353_ w_cout[3] OAI21X1
XNAND2X1_24 vdd _0_[12] gnd _353_ _357_ NAND2X1
XOAI21X1_24 gnd vdd _354_ _351_ _11_[1] _356_ OAI21X1
XINVX1_12 _11_[1] _361_ vdd gnd INVX1
XOR2X2_12 _362_ i_add_term1[13] vdd gnd i_add_term2[13] OR2X2
XNAND2X1_25 vdd _363_ gnd i_add_term2[13] i_add_term1[13] NAND2X1
XNAND3X1_13 _363_ vdd gnd _361_ _362_ _364_ NAND3X1
XNOR2X1_13 vdd i_add_term1[13] gnd _358_ i_add_term2[13] NOR2X1
XAND2X2_13 vdd gnd i_add_term2[13] i_add_term1[13] _359_ AND2X2
XOAI21X1_25 gnd vdd _358_ _359_ _360_ _11_[1] OAI21X1
XNAND2X1_26 vdd _0_[13] gnd _360_ _364_ NAND2X1
XOAI21X1_26 gnd vdd _361_ _358_ _11_[2] _363_ OAI21X1
XINVX1_13 _11_[2] _368_ vdd gnd INVX1
XOR2X2_13 _369_ i_add_term1[14] vdd gnd i_add_term2[14] OR2X2
XNAND2X1_27 vdd _370_ gnd i_add_term2[14] i_add_term1[14] NAND2X1
XNAND3X1_14 _370_ vdd gnd _368_ _369_ _371_ NAND3X1
XNOR2X1_14 vdd i_add_term1[14] gnd _365_ i_add_term2[14] NOR2X1
XAND2X2_14 vdd gnd i_add_term2[14] i_add_term1[14] _366_ AND2X2
XOAI21X1_27 gnd vdd _365_ _366_ _367_ _11_[2] OAI21X1
XNAND2X1_28 vdd _0_[14] gnd _367_ _371_ NAND2X1
XOAI21X1_28 gnd vdd _368_ _365_ _11_[3] _370_ OAI21X1
XINVX1_14 _11_[3] _375_ vdd gnd INVX1
XOR2X2_14 _376_ i_add_term1[15] vdd gnd i_add_term2[15] OR2X2
XNAND2X1_29 vdd _377_ gnd i_add_term2[15] i_add_term1[15] NAND2X1
XNAND3X1_15 _377_ vdd gnd _375_ _376_ _378_ NAND3X1
XNOR2X1_15 vdd i_add_term1[15] gnd _372_ i_add_term2[15] NOR2X1
XAND2X2_15 vdd gnd i_add_term2[15] i_add_term1[15] _373_ AND2X2
XOAI21X1_29 gnd vdd _372_ _373_ _374_ _11_[3] OAI21X1
XNAND2X1_30 vdd _0_[15] gnd _374_ _378_ NAND2X1
XOAI21X1_30 gnd vdd _375_ _372_ _10_ _377_ OAI21X1
XINVX1_15 w_cout[4] _382_ vdd gnd INVX1
XOR2X2_15 _383_ i_add_term1[16] vdd gnd i_add_term2[16] OR2X2
XNAND2X1_31 vdd _384_ gnd i_add_term2[16] i_add_term1[16] NAND2X1
XNAND3X1_16 _384_ vdd gnd _382_ _383_ _385_ NAND3X1
XNOR2X1_16 vdd i_add_term1[16] gnd _379_ i_add_term2[16] NOR2X1
XAND2X2_16 vdd gnd i_add_term2[16] i_add_term1[16] _380_ AND2X2
XOAI21X1_31 gnd vdd _379_ _380_ _381_ w_cout[4] OAI21X1
XNAND2X1_32 vdd _0_[16] gnd _381_ _385_ NAND2X1
XOAI21X1_32 gnd vdd _382_ _379_ _14_[1] _384_ OAI21X1
XINVX1_16 _14_[1] _389_ vdd gnd INVX1
XOR2X2_16 _390_ i_add_term1[17] vdd gnd i_add_term2[17] OR2X2
XNAND2X1_33 vdd _391_ gnd i_add_term2[17] i_add_term1[17] NAND2X1
XNAND3X1_17 _391_ vdd gnd _389_ _390_ _392_ NAND3X1
XNOR2X1_17 vdd i_add_term1[17] gnd _386_ i_add_term2[17] NOR2X1
XAND2X2_17 vdd gnd i_add_term2[17] i_add_term1[17] _387_ AND2X2
XOAI21X1_33 gnd vdd _386_ _387_ _388_ _14_[1] OAI21X1
XNAND2X1_34 vdd _0_[17] gnd _388_ _392_ NAND2X1
XOAI21X1_34 gnd vdd _389_ _386_ _14_[2] _391_ OAI21X1
XINVX1_17 _14_[2] _396_ vdd gnd INVX1
XOR2X2_17 _397_ i_add_term1[18] vdd gnd i_add_term2[18] OR2X2
XNAND2X1_35 vdd _398_ gnd i_add_term2[18] i_add_term1[18] NAND2X1
XNAND3X1_18 _398_ vdd gnd _396_ _397_ _399_ NAND3X1
XNOR2X1_18 vdd i_add_term1[18] gnd _393_ i_add_term2[18] NOR2X1
XAND2X2_18 vdd gnd i_add_term2[18] i_add_term1[18] _394_ AND2X2
XOAI21X1_35 gnd vdd _393_ _394_ _395_ _14_[2] OAI21X1
XNAND2X1_36 vdd _0_[18] gnd _395_ _399_ NAND2X1
XOAI21X1_36 gnd vdd _396_ _393_ _14_[3] _398_ OAI21X1
XINVX1_18 _14_[3] _403_ vdd gnd INVX1
XOR2X2_18 _404_ i_add_term1[19] vdd gnd i_add_term2[19] OR2X2
XNAND2X1_37 vdd _405_ gnd i_add_term2[19] i_add_term1[19] NAND2X1
XNAND3X1_19 _405_ vdd gnd _403_ _404_ _406_ NAND3X1
XNOR2X1_19 vdd i_add_term1[19] gnd _400_ i_add_term2[19] NOR2X1
XAND2X2_19 vdd gnd i_add_term2[19] i_add_term1[19] _401_ AND2X2
XOAI21X1_37 gnd vdd _400_ _401_ _402_ _14_[3] OAI21X1
XNAND2X1_38 vdd _0_[19] gnd _402_ _406_ NAND2X1
XOAI21X1_38 gnd vdd _403_ _400_ _13_ _405_ OAI21X1
XINVX1_19 w_cout[5] _410_ vdd gnd INVX1
XOR2X2_19 _411_ i_add_term1[20] vdd gnd i_add_term2[20] OR2X2
XNAND2X1_39 vdd _412_ gnd i_add_term2[20] i_add_term1[20] NAND2X1
XNAND3X1_20 _412_ vdd gnd _410_ _411_ _413_ NAND3X1
XNOR2X1_20 vdd i_add_term1[20] gnd _407_ i_add_term2[20] NOR2X1
XAND2X2_20 vdd gnd i_add_term2[20] i_add_term1[20] _408_ AND2X2
XOAI21X1_39 gnd vdd _407_ _408_ _409_ w_cout[5] OAI21X1
XNAND2X1_40 vdd _0_[20] gnd _409_ _413_ NAND2X1
XOAI21X1_40 gnd vdd _410_ _407_ _17_[1] _412_ OAI21X1
XINVX1_20 _17_[1] _417_ vdd gnd INVX1
XOR2X2_20 _418_ i_add_term1[21] vdd gnd i_add_term2[21] OR2X2
XNAND2X1_41 vdd _419_ gnd i_add_term2[21] i_add_term1[21] NAND2X1
XNAND3X1_21 _419_ vdd gnd _417_ _418_ _420_ NAND3X1
XNOR2X1_21 vdd i_add_term1[21] gnd _414_ i_add_term2[21] NOR2X1
XAND2X2_21 vdd gnd i_add_term2[21] i_add_term1[21] _415_ AND2X2
XOAI21X1_41 gnd vdd _414_ _415_ _416_ _17_[1] OAI21X1
XNAND2X1_42 vdd _0_[21] gnd _416_ _420_ NAND2X1
XOAI21X1_42 gnd vdd _417_ _414_ _17_[2] _419_ OAI21X1
XINVX1_21 _17_[2] _424_ vdd gnd INVX1
XOR2X2_21 _425_ i_add_term1[22] vdd gnd i_add_term2[22] OR2X2
XNAND2X1_43 vdd _426_ gnd i_add_term2[22] i_add_term1[22] NAND2X1
XNAND3X1_22 _426_ vdd gnd _424_ _425_ _427_ NAND3X1
XNOR2X1_22 vdd i_add_term1[22] gnd _421_ i_add_term2[22] NOR2X1
XAND2X2_22 vdd gnd i_add_term2[22] i_add_term1[22] _422_ AND2X2
XOAI21X1_43 gnd vdd _421_ _422_ _423_ _17_[2] OAI21X1
XNAND2X1_44 vdd _0_[22] gnd _423_ _427_ NAND2X1
XOAI21X1_44 gnd vdd _424_ _421_ _17_[3] _426_ OAI21X1
XINVX1_22 _17_[3] _431_ vdd gnd INVX1
XOR2X2_22 _432_ i_add_term1[23] vdd gnd i_add_term2[23] OR2X2
XNAND2X1_45 vdd _433_ gnd i_add_term2[23] i_add_term1[23] NAND2X1
XNAND3X1_23 _433_ vdd gnd _431_ _432_ _434_ NAND3X1
XNOR2X1_23 vdd i_add_term1[23] gnd _428_ i_add_term2[23] NOR2X1
XAND2X2_23 vdd gnd i_add_term2[23] i_add_term1[23] _429_ AND2X2
XOAI21X1_45 gnd vdd _428_ _429_ _430_ _17_[3] OAI21X1
XNAND2X1_46 vdd _0_[23] gnd _430_ _434_ NAND2X1
XOAI21X1_46 gnd vdd _431_ _428_ _16_ _433_ OAI21X1
XINVX1_23 w_cout[6] _438_ vdd gnd INVX1
XOR2X2_23 _439_ i_add_term1[24] vdd gnd i_add_term2[24] OR2X2
XNAND2X1_47 vdd _440_ gnd i_add_term2[24] i_add_term1[24] NAND2X1
XNAND3X1_24 _440_ vdd gnd _438_ _439_ _441_ NAND3X1
XNOR2X1_24 vdd i_add_term1[24] gnd _435_ i_add_term2[24] NOR2X1
XAND2X2_24 vdd gnd i_add_term2[24] i_add_term1[24] _436_ AND2X2
XOAI21X1_47 gnd vdd _435_ _436_ _437_ w_cout[6] OAI21X1
XNAND2X1_48 vdd _0_[24] gnd _437_ _441_ NAND2X1
XOAI21X1_48 gnd vdd _438_ _435_ _20_[1] _440_ OAI21X1
XINVX1_24 _20_[1] _445_ vdd gnd INVX1
XOR2X2_24 _446_ i_add_term1[25] vdd gnd i_add_term2[25] OR2X2
XNAND2X1_49 vdd _447_ gnd i_add_term2[25] i_add_term1[25] NAND2X1
XNAND3X1_25 _447_ vdd gnd _445_ _446_ _448_ NAND3X1
XNOR2X1_25 vdd i_add_term1[25] gnd _442_ i_add_term2[25] NOR2X1
XAND2X2_25 vdd gnd i_add_term2[25] i_add_term1[25] _443_ AND2X2
XOAI21X1_49 gnd vdd _442_ _443_ _444_ _20_[1] OAI21X1
XNAND2X1_50 vdd _0_[25] gnd _444_ _448_ NAND2X1
XOAI21X1_50 gnd vdd _445_ _442_ _20_[2] _447_ OAI21X1
XINVX1_25 _20_[2] _452_ vdd gnd INVX1
XOR2X2_25 _453_ i_add_term1[26] vdd gnd i_add_term2[26] OR2X2
XNAND2X1_51 vdd _454_ gnd i_add_term2[26] i_add_term1[26] NAND2X1
XNAND3X1_26 _454_ vdd gnd _452_ _453_ _455_ NAND3X1
XNOR2X1_26 vdd i_add_term1[26] gnd _449_ i_add_term2[26] NOR2X1
XAND2X2_26 vdd gnd i_add_term2[26] i_add_term1[26] _450_ AND2X2
XOAI21X1_51 gnd vdd _449_ _450_ _451_ _20_[2] OAI21X1
XNAND2X1_52 vdd _0_[26] gnd _451_ _455_ NAND2X1
XOAI21X1_52 gnd vdd _452_ _449_ _20_[3] _454_ OAI21X1
XINVX1_26 _20_[3] _459_ vdd gnd INVX1
XOR2X2_26 _460_ i_add_term1[27] vdd gnd i_add_term2[27] OR2X2
XNAND2X1_53 vdd _461_ gnd i_add_term2[27] i_add_term1[27] NAND2X1
XNAND3X1_27 _461_ vdd gnd _459_ _460_ _462_ NAND3X1
XNOR2X1_27 vdd i_add_term1[27] gnd _456_ i_add_term2[27] NOR2X1
XAND2X2_27 vdd gnd i_add_term2[27] i_add_term1[27] _457_ AND2X2
XOAI21X1_53 gnd vdd _456_ _457_ _458_ _20_[3] OAI21X1
XNAND2X1_54 vdd _0_[27] gnd _458_ _462_ NAND2X1
XOAI21X1_54 gnd vdd _459_ _456_ _19_ _461_ OAI21X1
XINVX1_27 w_cout[7] _466_ vdd gnd INVX1
XOR2X2_27 _467_ i_add_term1[28] vdd gnd i_add_term2[28] OR2X2
XNAND2X1_55 vdd _468_ gnd i_add_term2[28] i_add_term1[28] NAND2X1
XNAND3X1_28 _468_ vdd gnd _466_ _467_ _469_ NAND3X1
XNOR2X1_28 vdd i_add_term1[28] gnd _463_ i_add_term2[28] NOR2X1
XAND2X2_28 vdd gnd i_add_term2[28] i_add_term1[28] _464_ AND2X2
XOAI21X1_55 gnd vdd _463_ _464_ _465_ w_cout[7] OAI21X1
XNAND2X1_56 vdd _0_[28] gnd _465_ _469_ NAND2X1
XOAI21X1_56 gnd vdd _466_ _463_ _23_[1] _468_ OAI21X1
XINVX1_28 _23_[1] _473_ vdd gnd INVX1
XOR2X2_28 _474_ i_add_term1[29] vdd gnd i_add_term2[29] OR2X2
XNAND2X1_57 vdd _475_ gnd i_add_term2[29] i_add_term1[29] NAND2X1
XNAND3X1_29 _475_ vdd gnd _473_ _474_ _476_ NAND3X1
XNOR2X1_29 vdd i_add_term1[29] gnd _470_ i_add_term2[29] NOR2X1
XAND2X2_29 vdd gnd i_add_term2[29] i_add_term1[29] _471_ AND2X2
XOAI21X1_57 gnd vdd _470_ _471_ _472_ _23_[1] OAI21X1
XNAND2X1_58 vdd _0_[29] gnd _472_ _476_ NAND2X1
XOAI21X1_58 gnd vdd _473_ _470_ _23_[2] _475_ OAI21X1
XINVX1_29 _23_[2] _480_ vdd gnd INVX1
XOR2X2_29 _481_ i_add_term1[30] vdd gnd i_add_term2[30] OR2X2
XNAND2X1_59 vdd _482_ gnd i_add_term2[30] i_add_term1[30] NAND2X1
XNAND3X1_30 _482_ vdd gnd _480_ _481_ _483_ NAND3X1
XNOR2X1_30 vdd i_add_term1[30] gnd _477_ i_add_term2[30] NOR2X1
XAND2X2_30 vdd gnd i_add_term2[30] i_add_term1[30] _478_ AND2X2
XOAI21X1_59 gnd vdd _477_ _478_ _479_ _23_[2] OAI21X1
XNAND2X1_60 vdd _0_[30] gnd _479_ _483_ NAND2X1
XOAI21X1_60 gnd vdd _480_ _477_ _23_[3] _482_ OAI21X1
XINVX1_30 _23_[3] _487_ vdd gnd INVX1
XOR2X2_30 _488_ i_add_term1[31] vdd gnd i_add_term2[31] OR2X2
XNAND2X1_61 vdd _489_ gnd i_add_term2[31] i_add_term1[31] NAND2X1
XNAND3X1_31 _489_ vdd gnd _487_ _488_ _490_ NAND3X1
XNOR2X1_31 vdd i_add_term1[31] gnd _484_ i_add_term2[31] NOR2X1
XAND2X2_31 vdd gnd i_add_term2[31] i_add_term1[31] _485_ AND2X2
XOAI21X1_61 gnd vdd _484_ _485_ _486_ _23_[3] OAI21X1
XNAND2X1_62 vdd _0_[31] gnd _486_ _490_ NAND2X1
XOAI21X1_62 gnd vdd _487_ _484_ _22_ _489_ OAI21X1
XINVX1_31 w_cout[8] _494_ vdd gnd INVX1
XOR2X2_31 _495_ i_add_term1[32] vdd gnd i_add_term2[32] OR2X2
XNAND2X1_63 vdd _496_ gnd i_add_term2[32] i_add_term1[32] NAND2X1
XNAND3X1_32 _496_ vdd gnd _494_ _495_ _497_ NAND3X1
XNOR2X1_32 vdd i_add_term1[32] gnd _491_ i_add_term2[32] NOR2X1
XAND2X2_32 vdd gnd i_add_term2[32] i_add_term1[32] _492_ AND2X2
XOAI21X1_63 gnd vdd _491_ _492_ _493_ w_cout[8] OAI21X1
XNAND2X1_64 vdd _0_[32] gnd _493_ _497_ NAND2X1
XOAI21X1_64 gnd vdd _494_ _491_ _26_[1] _496_ OAI21X1
XINVX1_32 _26_[1] _501_ vdd gnd INVX1
XOR2X2_32 _502_ i_add_term1[33] vdd gnd i_add_term2[33] OR2X2
XNAND2X1_65 vdd _503_ gnd i_add_term2[33] i_add_term1[33] NAND2X1
XNAND3X1_33 _503_ vdd gnd _501_ _502_ _504_ NAND3X1
XNOR2X1_33 vdd i_add_term1[33] gnd _498_ i_add_term2[33] NOR2X1
XAND2X2_33 vdd gnd i_add_term2[33] i_add_term1[33] _499_ AND2X2
XOAI21X1_65 gnd vdd _498_ _499_ _500_ _26_[1] OAI21X1
XNAND2X1_66 vdd _0_[33] gnd _500_ _504_ NAND2X1
XOAI21X1_66 gnd vdd _501_ _498_ _26_[2] _503_ OAI21X1
XINVX1_33 _26_[2] _508_ vdd gnd INVX1
XOR2X2_33 _509_ i_add_term1[34] vdd gnd i_add_term2[34] OR2X2
XNAND2X1_67 vdd _510_ gnd i_add_term2[34] i_add_term1[34] NAND2X1
XNAND3X1_34 _510_ vdd gnd _508_ _509_ _511_ NAND3X1
XNOR2X1_34 vdd i_add_term1[34] gnd _505_ i_add_term2[34] NOR2X1
XAND2X2_34 vdd gnd i_add_term2[34] i_add_term1[34] _506_ AND2X2
XOAI21X1_67 gnd vdd _505_ _506_ _507_ _26_[2] OAI21X1
XNAND2X1_68 vdd _0_[34] gnd _507_ _511_ NAND2X1
XOAI21X1_68 gnd vdd _508_ _505_ _26_[3] _510_ OAI21X1
XINVX1_34 _26_[3] _515_ vdd gnd INVX1
XOR2X2_34 _516_ i_add_term1[35] vdd gnd i_add_term2[35] OR2X2
XNAND2X1_69 vdd _517_ gnd i_add_term2[35] i_add_term1[35] NAND2X1
XNAND3X1_35 _517_ vdd gnd _515_ _516_ _518_ NAND3X1
XNOR2X1_35 vdd i_add_term1[35] gnd _512_ i_add_term2[35] NOR2X1
XAND2X2_35 vdd gnd i_add_term2[35] i_add_term1[35] _513_ AND2X2
XOAI21X1_69 gnd vdd _512_ _513_ _514_ _26_[3] OAI21X1
XNAND2X1_70 vdd _0_[35] gnd _514_ _518_ NAND2X1
XOAI21X1_70 gnd vdd _515_ _512_ _25_ _517_ OAI21X1
XINVX1_35 w_cout[9] _522_ vdd gnd INVX1
XOR2X2_35 _523_ i_add_term1[36] vdd gnd i_add_term2[36] OR2X2
XNAND2X1_71 vdd _524_ gnd i_add_term2[36] i_add_term1[36] NAND2X1
XNAND3X1_36 _524_ vdd gnd _522_ _523_ _525_ NAND3X1
XNOR2X1_36 vdd i_add_term1[36] gnd _519_ i_add_term2[36] NOR2X1
XAND2X2_36 vdd gnd i_add_term2[36] i_add_term1[36] _520_ AND2X2
XOAI21X1_71 gnd vdd _519_ _520_ _521_ w_cout[9] OAI21X1
XNAND2X1_72 vdd _0_[36] gnd _521_ _525_ NAND2X1
XOAI21X1_72 gnd vdd _522_ _519_ _29_[1] _524_ OAI21X1
XINVX1_36 _29_[1] _529_ vdd gnd INVX1
XOR2X2_36 _530_ i_add_term1[37] vdd gnd i_add_term2[37] OR2X2
XNAND2X1_73 vdd _531_ gnd i_add_term2[37] i_add_term1[37] NAND2X1
XNAND3X1_37 _531_ vdd gnd _529_ _530_ _532_ NAND3X1
XNOR2X1_37 vdd i_add_term1[37] gnd _526_ i_add_term2[37] NOR2X1
XAND2X2_37 vdd gnd i_add_term2[37] i_add_term1[37] _527_ AND2X2
XOAI21X1_73 gnd vdd _526_ _527_ _528_ _29_[1] OAI21X1
XNAND2X1_74 vdd _0_[37] gnd _528_ _532_ NAND2X1
XOAI21X1_74 gnd vdd _529_ _526_ _29_[2] _531_ OAI21X1
XINVX1_37 _29_[2] _536_ vdd gnd INVX1
XOR2X2_37 _537_ i_add_term1[38] vdd gnd i_add_term2[38] OR2X2
XNAND2X1_75 vdd _538_ gnd i_add_term2[38] i_add_term1[38] NAND2X1
XNAND3X1_38 _538_ vdd gnd _536_ _537_ _539_ NAND3X1
XNOR2X1_38 vdd i_add_term1[38] gnd _533_ i_add_term2[38] NOR2X1
XAND2X2_38 vdd gnd i_add_term2[38] i_add_term1[38] _534_ AND2X2
XOAI21X1_75 gnd vdd _533_ _534_ _535_ _29_[2] OAI21X1
XNAND2X1_76 vdd _0_[38] gnd _535_ _539_ NAND2X1
XOAI21X1_76 gnd vdd _536_ _533_ _29_[3] _538_ OAI21X1
XINVX1_38 _29_[3] _543_ vdd gnd INVX1
XOR2X2_38 _544_ i_add_term1[39] vdd gnd i_add_term2[39] OR2X2
XNAND2X1_77 vdd _545_ gnd i_add_term2[39] i_add_term1[39] NAND2X1
XNAND3X1_39 _545_ vdd gnd _543_ _544_ _546_ NAND3X1
XNOR2X1_39 vdd i_add_term1[39] gnd _540_ i_add_term2[39] NOR2X1
XAND2X2_39 vdd gnd i_add_term2[39] i_add_term1[39] _541_ AND2X2
XOAI21X1_77 gnd vdd _540_ _541_ _542_ _29_[3] OAI21X1
XNAND2X1_78 vdd _0_[39] gnd _542_ _546_ NAND2X1
XOAI21X1_78 gnd vdd _543_ _540_ _28_ _545_ OAI21X1
XINVX1_39 w_cout[10] _550_ vdd gnd INVX1
XOR2X2_39 _551_ i_add_term1[40] vdd gnd i_add_term2[40] OR2X2
XNAND2X1_79 vdd _552_ gnd i_add_term2[40] i_add_term1[40] NAND2X1
XNAND3X1_40 _552_ vdd gnd _550_ _551_ _553_ NAND3X1
XNOR2X1_40 vdd i_add_term1[40] gnd _547_ i_add_term2[40] NOR2X1
XAND2X2_40 vdd gnd i_add_term2[40] i_add_term1[40] _548_ AND2X2
XOAI21X1_79 gnd vdd _547_ _548_ _549_ w_cout[10] OAI21X1
XNAND2X1_80 vdd _0_[40] gnd _549_ _553_ NAND2X1
XOAI21X1_80 gnd vdd _550_ _547_ _32_[1] _552_ OAI21X1
XINVX1_40 _32_[1] _557_ vdd gnd INVX1
XOR2X2_40 _558_ i_add_term1[41] vdd gnd i_add_term2[41] OR2X2
XNAND2X1_81 vdd _559_ gnd i_add_term2[41] i_add_term1[41] NAND2X1
XNAND3X1_41 _559_ vdd gnd _557_ _558_ _560_ NAND3X1
XNOR2X1_41 vdd i_add_term1[41] gnd _554_ i_add_term2[41] NOR2X1
XAND2X2_41 vdd gnd i_add_term2[41] i_add_term1[41] _555_ AND2X2
XOAI21X1_81 gnd vdd _554_ _555_ _556_ _32_[1] OAI21X1
XNAND2X1_82 vdd _0_[41] gnd _556_ _560_ NAND2X1
XOAI21X1_82 gnd vdd _557_ _554_ _32_[2] _559_ OAI21X1
XINVX1_41 _32_[2] _564_ vdd gnd INVX1
XOR2X2_41 _565_ i_add_term1[42] vdd gnd i_add_term2[42] OR2X2
XNAND2X1_83 vdd _566_ gnd i_add_term2[42] i_add_term1[42] NAND2X1
XNAND3X1_42 _566_ vdd gnd _564_ _565_ _567_ NAND3X1
XNOR2X1_42 vdd i_add_term1[42] gnd _561_ i_add_term2[42] NOR2X1
XAND2X2_42 vdd gnd i_add_term2[42] i_add_term1[42] _562_ AND2X2
XOAI21X1_83 gnd vdd _561_ _562_ _563_ _32_[2] OAI21X1
XNAND2X1_84 vdd _0_[42] gnd _563_ _567_ NAND2X1
XOAI21X1_84 gnd vdd _564_ _561_ _32_[3] _566_ OAI21X1
XINVX1_42 _32_[3] _571_ vdd gnd INVX1
XOR2X2_42 _572_ i_add_term1[43] vdd gnd i_add_term2[43] OR2X2
XNAND2X1_85 vdd _573_ gnd i_add_term2[43] i_add_term1[43] NAND2X1
XNAND3X1_43 _573_ vdd gnd _571_ _572_ _574_ NAND3X1
XNOR2X1_43 vdd i_add_term1[43] gnd _568_ i_add_term2[43] NOR2X1
XAND2X2_43 vdd gnd i_add_term2[43] i_add_term1[43] _569_ AND2X2
XOAI21X1_85 gnd vdd _568_ _569_ _570_ _32_[3] OAI21X1
XNAND2X1_86 vdd _0_[43] gnd _570_ _574_ NAND2X1
XOAI21X1_86 gnd vdd _571_ _568_ _31_ _573_ OAI21X1
XINVX1_43 w_cout[11] _578_ vdd gnd INVX1
XOR2X2_43 _579_ i_add_term1[44] vdd gnd i_add_term2[44] OR2X2
XNAND2X1_87 vdd _580_ gnd i_add_term2[44] i_add_term1[44] NAND2X1
XNAND3X1_44 _580_ vdd gnd _578_ _579_ _581_ NAND3X1
XNOR2X1_44 vdd i_add_term1[44] gnd _575_ i_add_term2[44] NOR2X1
XAND2X2_44 vdd gnd i_add_term2[44] i_add_term1[44] _576_ AND2X2
XOAI21X1_87 gnd vdd _575_ _576_ _577_ w_cout[11] OAI21X1
XNAND2X1_88 vdd _0_[44] gnd _577_ _581_ NAND2X1
XOAI21X1_88 gnd vdd _578_ _575_ _35_[1] _580_ OAI21X1
XINVX1_44 _35_[1] _585_ vdd gnd INVX1
XOR2X2_44 _586_ i_add_term1[45] vdd gnd i_add_term2[45] OR2X2
XNAND2X1_89 vdd _587_ gnd i_add_term2[45] i_add_term1[45] NAND2X1
XNAND3X1_45 _587_ vdd gnd _585_ _586_ _588_ NAND3X1
XNOR2X1_45 vdd i_add_term1[45] gnd _582_ i_add_term2[45] NOR2X1
XAND2X2_45 vdd gnd i_add_term2[45] i_add_term1[45] _583_ AND2X2
XOAI21X1_89 gnd vdd _582_ _583_ _584_ _35_[1] OAI21X1
XNAND2X1_90 vdd _0_[45] gnd _584_ _588_ NAND2X1
XOAI21X1_90 gnd vdd _585_ _582_ _35_[2] _587_ OAI21X1
XINVX1_45 _35_[2] _592_ vdd gnd INVX1
XOR2X2_45 _593_ i_add_term1[46] vdd gnd i_add_term2[46] OR2X2
XNAND2X1_91 vdd _594_ gnd i_add_term2[46] i_add_term1[46] NAND2X1
XNAND3X1_46 _594_ vdd gnd _592_ _593_ _595_ NAND3X1
XNOR2X1_46 vdd i_add_term1[46] gnd _589_ i_add_term2[46] NOR2X1
XAND2X2_46 vdd gnd i_add_term2[46] i_add_term1[46] _590_ AND2X2
XOAI21X1_91 gnd vdd _589_ _590_ _591_ _35_[2] OAI21X1
XNAND2X1_92 vdd _0_[46] gnd _591_ _595_ NAND2X1
XOAI21X1_92 gnd vdd _592_ _589_ _35_[3] _594_ OAI21X1
XINVX1_46 _35_[3] _599_ vdd gnd INVX1
XOR2X2_46 _600_ i_add_term1[47] vdd gnd i_add_term2[47] OR2X2
XNAND2X1_93 vdd _601_ gnd i_add_term2[47] i_add_term1[47] NAND2X1
XNAND3X1_47 _601_ vdd gnd _599_ _600_ _602_ NAND3X1
XNOR2X1_47 vdd i_add_term1[47] gnd _596_ i_add_term2[47] NOR2X1
XAND2X2_47 vdd gnd i_add_term2[47] i_add_term1[47] _597_ AND2X2
XOAI21X1_93 gnd vdd _596_ _597_ _598_ _35_[3] OAI21X1
XNAND2X1_94 vdd _0_[47] gnd _598_ _602_ NAND2X1
XOAI21X1_94 gnd vdd _599_ _596_ _34_ _601_ OAI21X1
XINVX1_47 w_cout[12] _606_ vdd gnd INVX1
XOR2X2_47 _607_ i_add_term1[48] vdd gnd i_add_term2[48] OR2X2
XNAND2X1_95 vdd _608_ gnd i_add_term2[48] i_add_term1[48] NAND2X1
XNAND3X1_48 _608_ vdd gnd _606_ _607_ _609_ NAND3X1
XNOR2X1_48 vdd i_add_term1[48] gnd _603_ i_add_term2[48] NOR2X1
XAND2X2_48 vdd gnd i_add_term2[48] i_add_term1[48] _604_ AND2X2
XOAI21X1_95 gnd vdd _603_ _604_ _605_ w_cout[12] OAI21X1
XNAND2X1_96 vdd _0_[48] gnd _605_ _609_ NAND2X1
XOAI21X1_96 gnd vdd _606_ _603_ _38_[1] _608_ OAI21X1
XINVX1_48 _38_[1] _613_ vdd gnd INVX1
XOR2X2_48 _614_ i_add_term1[49] vdd gnd i_add_term2[49] OR2X2
XNAND2X1_97 vdd _615_ gnd i_add_term2[49] i_add_term1[49] NAND2X1
XNAND3X1_49 _615_ vdd gnd _613_ _614_ _616_ NAND3X1
XNOR2X1_49 vdd i_add_term1[49] gnd _610_ i_add_term2[49] NOR2X1
XAND2X2_49 vdd gnd i_add_term2[49] i_add_term1[49] _611_ AND2X2
XOAI21X1_97 gnd vdd _610_ _611_ _612_ _38_[1] OAI21X1
XNAND2X1_98 vdd _0_[49] gnd _612_ _616_ NAND2X1
XOAI21X1_98 gnd vdd _613_ _610_ _38_[2] _615_ OAI21X1
XINVX1_49 _38_[2] _620_ vdd gnd INVX1
XOR2X2_49 _621_ i_add_term1[50] vdd gnd i_add_term2[50] OR2X2
XNAND2X1_99 vdd _622_ gnd i_add_term2[50] i_add_term1[50] NAND2X1
XNAND3X1_50 _622_ vdd gnd _620_ _621_ _623_ NAND3X1
XNOR2X1_50 vdd i_add_term1[50] gnd _617_ i_add_term2[50] NOR2X1
XAND2X2_50 vdd gnd i_add_term2[50] i_add_term1[50] _618_ AND2X2
XOAI21X1_99 gnd vdd _617_ _618_ _619_ _38_[2] OAI21X1
XNAND2X1_100 vdd _0_[50] gnd _619_ _623_ NAND2X1
XOAI21X1_100 gnd vdd _620_ _617_ _38_[3] _622_ OAI21X1
XINVX1_50 _38_[3] _627_ vdd gnd INVX1
XOR2X2_50 _628_ i_add_term1[51] vdd gnd i_add_term2[51] OR2X2
XNAND2X1_101 vdd _629_ gnd i_add_term2[51] i_add_term1[51] NAND2X1
XNAND3X1_51 _629_ vdd gnd _627_ _628_ _630_ NAND3X1
XNOR2X1_51 vdd i_add_term1[51] gnd _624_ i_add_term2[51] NOR2X1
XAND2X2_51 vdd gnd i_add_term2[51] i_add_term1[51] _625_ AND2X2
XOAI21X1_101 gnd vdd _624_ _625_ _626_ _38_[3] OAI21X1
XNAND2X1_102 vdd _0_[51] gnd _626_ _630_ NAND2X1
XOAI21X1_102 gnd vdd _627_ _624_ _37_ _629_ OAI21X1
XINVX1_51 w_cout[13] _634_ vdd gnd INVX1
XOR2X2_51 _635_ i_add_term1[52] vdd gnd i_add_term2[52] OR2X2
XNAND2X1_103 vdd _636_ gnd i_add_term2[52] i_add_term1[52] NAND2X1
XNAND3X1_52 _636_ vdd gnd _634_ _635_ _637_ NAND3X1
XNOR2X1_52 vdd i_add_term1[52] gnd _631_ i_add_term2[52] NOR2X1
XAND2X2_52 vdd gnd i_add_term2[52] i_add_term1[52] _632_ AND2X2
XOAI21X1_103 gnd vdd _631_ _632_ _633_ w_cout[13] OAI21X1
XNAND2X1_104 vdd _0_[52] gnd _633_ _637_ NAND2X1
XOAI21X1_104 gnd vdd _634_ _631_ _41_[1] _636_ OAI21X1
XINVX1_52 _41_[1] _641_ vdd gnd INVX1
XOR2X2_52 _642_ i_add_term1[53] vdd gnd i_add_term2[53] OR2X2
XNAND2X1_105 vdd _643_ gnd i_add_term2[53] i_add_term1[53] NAND2X1
XNAND3X1_53 _643_ vdd gnd _641_ _642_ _644_ NAND3X1
XNOR2X1_53 vdd i_add_term1[53] gnd _638_ i_add_term2[53] NOR2X1
XAND2X2_53 vdd gnd i_add_term2[53] i_add_term1[53] _639_ AND2X2
XOAI21X1_105 gnd vdd _638_ _639_ _640_ _41_[1] OAI21X1
XNAND2X1_106 vdd _0_[53] gnd _640_ _644_ NAND2X1
XOAI21X1_106 gnd vdd _641_ _638_ _41_[2] _643_ OAI21X1
XINVX1_53 _41_[2] _648_ vdd gnd INVX1
XOR2X2_53 _649_ i_add_term1[54] vdd gnd i_add_term2[54] OR2X2
XNAND2X1_107 vdd _650_ gnd i_add_term2[54] i_add_term1[54] NAND2X1
XNAND3X1_54 _650_ vdd gnd _648_ _649_ _651_ NAND3X1
XNOR2X1_54 vdd i_add_term1[54] gnd _645_ i_add_term2[54] NOR2X1
XAND2X2_54 vdd gnd i_add_term2[54] i_add_term1[54] _646_ AND2X2
XOAI21X1_107 gnd vdd _645_ _646_ _647_ _41_[2] OAI21X1
XNAND2X1_108 vdd _0_[54] gnd _647_ _651_ NAND2X1
XOAI21X1_108 gnd vdd _648_ _645_ _41_[3] _650_ OAI21X1
XINVX1_54 _41_[3] _655_ vdd gnd INVX1
XOR2X2_54 _656_ i_add_term1[55] vdd gnd i_add_term2[55] OR2X2
XNAND2X1_109 vdd _657_ gnd i_add_term2[55] i_add_term1[55] NAND2X1
XNAND3X1_55 _657_ vdd gnd _655_ _656_ _658_ NAND3X1
XNOR2X1_55 vdd i_add_term1[55] gnd _652_ i_add_term2[55] NOR2X1
XAND2X2_55 vdd gnd i_add_term2[55] i_add_term1[55] _653_ AND2X2
XOAI21X1_109 gnd vdd _652_ _653_ _654_ _41_[3] OAI21X1
XNAND2X1_110 vdd _0_[55] gnd _654_ _658_ NAND2X1
XOAI21X1_110 gnd vdd _655_ _652_ _40_ _657_ OAI21X1
XINVX1_55 cskip1_inst.cin _662_ vdd gnd INVX1
XOR2X2_55 _663_ i_add_term1[56] vdd gnd i_add_term2[56] OR2X2
XNAND2X1_111 vdd _664_ gnd i_add_term2[56] i_add_term1[56] NAND2X1