* XSpice netlist created from SPICE and liberty sources by spi2xspice.py
*SPICE netlist created from BLIF module csa_64bit by blif2BSpice
.subckt csa_64bit a_vdd a_gnd a_i_add_term1_0_ a_i_add_term1_1_ a_i_add_term1_2_ a_i_add_term1_3_ a_i_add_term1_4_ a_i_add_term1_5_ a_i_add_term1_6_ a_i_add_term1_7_ a_i_add_term1_8_ a_i_add_term1_9_ a_i_add_term1_10_ a_i_add_term1_11_ a_i_add_term1_12_ a_i_add_term1_13_ a_i_add_term1_14_ a_i_add_term1_15_ a_i_add_term1_16_ a_i_add_term1_17_ a_i_add_term1_18_ a_i_add_term1_19_ a_i_add_term1_20_ a_i_add_term1_21_ a_i_add_term1_22_ a_i_add_term1_23_ a_i_add_term1_24_ a_i_add_term1_25_ a_i_add_term1_26_ a_i_add_term1_27_ a_i_add_term1_28_ a_i_add_term1_29_ a_i_add_term1_30_ a_i_add_term1_31_ a_i_add_term1_32_ a_i_add_term1_33_ a_i_add_term1_34_ a_i_add_term1_35_ a_i_add_term1_36_ a_i_add_term1_37_ a_i_add_term1_38_ a_i_add_term1_39_ a_i_add_term1_40_ a_i_add_term1_41_ a_i_add_term1_42_ a_i_add_term1_43_ a_i_add_term1_44_ a_i_add_term1_45_ a_i_add_term1_46_ a_i_add_term1_47_ a_i_add_term1_48_ a_i_add_term1_49_ a_i_add_term1_50_ a_i_add_term1_51_ a_i_add_term1_52_ a_i_add_term1_53_ a_i_add_term1_54_ a_i_add_term1_55_ a_i_add_term1_56_ a_i_add_term1_57_ a_i_add_term1_58_ a_i_add_term1_59_ a_i_add_term1_60_ a_i_add_term1_61_ a_i_add_term1_62_ a_i_add_term1_63_ a_i_add_term2_0_ a_i_add_term2_1_ a_i_add_term2_2_ a_i_add_term2_3_ a_i_add_term2_4_ a_i_add_term2_5_ a_i_add_term2_6_ a_i_add_term2_7_ a_i_add_term2_8_ a_i_add_term2_9_ a_i_add_term2_10_ a_i_add_term2_11_ a_i_add_term2_12_ a_i_add_term2_13_ a_i_add_term2_14_ a_i_add_term2_15_ a_i_add_term2_16_ a_i_add_term2_17_ a_i_add_term2_18_ a_i_add_term2_19_ a_i_add_term2_20_ a_i_add_term2_21_ a_i_add_term2_22_ a_i_add_term2_23_ a_i_add_term2_24_ a_i_add_term2_25_ a_i_add_term2_26_ a_i_add_term2_27_ a_i_add_term2_28_ a_i_add_term2_29_ a_i_add_term2_30_ a_i_add_term2_31_ a_i_add_term2_32_ a_i_add_term2_33_ a_i_add_term2_34_ a_i_add_term2_35_ a_i_add_term2_36_ a_i_add_term2_37_ a_i_add_term2_38_ a_i_add_term2_39_ a_i_add_term2_40_ a_i_add_term2_41_ a_i_add_term2_42_ a_i_add_term2_43_ a_i_add_term2_44_ a_i_add_term2_45_ a_i_add_term2_46_ a_i_add_term2_47_ a_i_add_term2_48_ a_i_add_term2_49_ a_i_add_term2_50_ a_i_add_term2_51_ a_i_add_term2_52_ a_i_add_term2_53_ a_i_add_term2_54_ a_i_add_term2_55_ a_i_add_term2_56_ a_i_add_term2_57_ a_i_add_term2_58_ a_i_add_term2_59_ a_i_add_term2_60_ a_i_add_term2_61_ a_i_add_term2_62_ a_i_add_term2_63_ a_sum_0_ a_sum_1_ a_sum_2_ a_sum_3_ a_sum_4_ a_sum_5_ a_sum_6_ a_sum_7_ a_sum_8_ a_sum_9_ a_sum_10_ a_sum_11_ a_sum_12_ a_sum_13_ a_sum_14_ a_sum_15_ a_sum_16_ a_sum_17_ a_sum_18_ a_sum_19_ a_sum_20_ a_sum_21_ a_sum_22_ a_sum_23_ a_sum_24_ a_sum_25_ a_sum_26_ a_sum_27_ a_sum_28_ a_sum_29_ a_sum_30_ a_sum_31_ a_sum_32_ a_sum_33_ a_sum_34_ a_sum_35_ a_sum_36_ a_sum_37_ a_sum_38_ a_sum_39_ a_sum_40_ a_sum_41_ a_sum_42_ a_sum_43_ a_sum_44_ a_sum_45_ a_sum_46_ a_sum_47_ a_sum_48_ a_sum_49_ a_sum_50_ a_sum_51_ a_sum_52_ a_sum_53_ a_sum_54_ a_sum_55_ a_sum_56_ a_sum_57_ a_sum_58_ a_sum_59_ a_sum_60_ a_sum_61_ a_sum_62_ a_sum_63_ a_cout
ABUFX2_1 [w_cout_15_] cout d_lut_BUFX2
ABUFX2_2 [rca_inst.fa0.o_sum] sum_0_ d_lut_BUFX2
ABUFX2_3 [rca_inst.fa_1_.o_sum] sum_1_ d_lut_BUFX2
ABUFX2_4 [rca_inst.fa_2_.o_sum] sum_2_ d_lut_BUFX2
ABUFX2_5 [rca_inst.fa3.o_sum] sum_3_ d_lut_BUFX2
ABUFX2_6 [_0__4_] sum_4_ d_lut_BUFX2
ABUFX2_7 [_0__5_] sum_5_ d_lut_BUFX2
ABUFX2_8 [_0__6_] sum_6_ d_lut_BUFX2
ABUFX2_9 [_0__7_] sum_7_ d_lut_BUFX2
ABUFX2_10 [_0__8_] sum_8_ d_lut_BUFX2
ABUFX2_11 [_0__9_] sum_9_ d_lut_BUFX2
ABUFX2_12 [_0__10_] sum_10_ d_lut_BUFX2
ABUFX2_13 [_0__11_] sum_11_ d_lut_BUFX2
ABUFX2_14 [_0__12_] sum_12_ d_lut_BUFX2
ABUFX2_15 [_0__13_] sum_13_ d_lut_BUFX2
ABUFX2_16 [_0__14_] sum_14_ d_lut_BUFX2
ABUFX2_17 [_0__15_] sum_15_ d_lut_BUFX2
ABUFX2_18 [_0__16_] sum_16_ d_lut_BUFX2
ABUFX2_19 [_0__17_] sum_17_ d_lut_BUFX2
ABUFX2_20 [_0__18_] sum_18_ d_lut_BUFX2
ABUFX2_21 [_0__19_] sum_19_ d_lut_BUFX2
ABUFX2_22 [_0__20_] sum_20_ d_lut_BUFX2
ABUFX2_23 [_0__21_] sum_21_ d_lut_BUFX2
ABUFX2_24 [_0__22_] sum_22_ d_lut_BUFX2
ABUFX2_25 [_0__23_] sum_23_ d_lut_BUFX2
ABUFX2_26 [_0__24_] sum_24_ d_lut_BUFX2
ABUFX2_27 [_0__25_] sum_25_ d_lut_BUFX2
ABUFX2_28 [_0__26_] sum_26_ d_lut_BUFX2
ABUFX2_29 [_0__27_] sum_27_ d_lut_BUFX2
ABUFX2_30 [_0__28_] sum_28_ d_lut_BUFX2
ABUFX2_31 [_0__29_] sum_29_ d_lut_BUFX2
ABUFX2_32 [_0__30_] sum_30_ d_lut_BUFX2
ABUFX2_33 [_0__31_] sum_31_ d_lut_BUFX2
ABUFX2_34 [_0__32_] sum_32_ d_lut_BUFX2
ABUFX2_35 [_0__33_] sum_33_ d_lut_BUFX2
ABUFX2_36 [_0__34_] sum_34_ d_lut_BUFX2
ABUFX2_37 [_0__35_] sum_35_ d_lut_BUFX2
ABUFX2_38 [_0__36_] sum_36_ d_lut_BUFX2
ABUFX2_39 [_0__37_] sum_37_ d_lut_BUFX2
ABUFX2_40 [_0__38_] sum_38_ d_lut_BUFX2
ABUFX2_41 [_0__39_] sum_39_ d_lut_BUFX2
ABUFX2_42 [_0__40_] sum_40_ d_lut_BUFX2
ABUFX2_43 [_0__41_] sum_41_ d_lut_BUFX2
ABUFX2_44 [_0__42_] sum_42_ d_lut_BUFX2
ABUFX2_45 [_0__43_] sum_43_ d_lut_BUFX2
ABUFX2_46 [_0__44_] sum_44_ d_lut_BUFX2
ABUFX2_47 [_0__45_] sum_45_ d_lut_BUFX2
ABUFX2_48 [_0__46_] sum_46_ d_lut_BUFX2
ABUFX2_49 [_0__47_] sum_47_ d_lut_BUFX2
ABUFX2_50 [_0__48_] sum_48_ d_lut_BUFX2
ABUFX2_51 [_0__49_] sum_49_ d_lut_BUFX2
ABUFX2_52 [_0__50_] sum_50_ d_lut_BUFX2
ABUFX2_53 [_0__51_] sum_51_ d_lut_BUFX2
ABUFX2_54 [_0__52_] sum_52_ d_lut_BUFX2
ABUFX2_55 [_0__53_] sum_53_ d_lut_BUFX2
ABUFX2_56 [_0__54_] sum_54_ d_lut_BUFX2
ABUFX2_57 [_0__55_] sum_55_ d_lut_BUFX2
ABUFX2_58 [_0__56_] sum_56_ d_lut_BUFX2
ABUFX2_59 [_0__57_] sum_57_ d_lut_BUFX2
ABUFX2_60 [_0__58_] sum_58_ d_lut_BUFX2
ABUFX2_61 [_0__59_] sum_59_ d_lut_BUFX2
ABUFX2_62 [_0__60_] sum_60_ d_lut_BUFX2
ABUFX2_63 [_0__61_] sum_61_ d_lut_BUFX2
ABUFX2_64 [_0__62_] sum_62_ d_lut_BUFX2
ABUFX2_65 [_0__63_] sum_63_ d_lut_BUFX2
AINVX1_1 [_1_] _91_ d_lut_INVX1
ANAND2X1_1 [_2_ rca_inst.cout] _92_ d_lut_NAND2X1
AOAI21X1_1 [rca_inst.cout _91_ _92_] w_cout_1_ d_lut_OAI21X1
AINVX1_2 [_3__0_] _93_ d_lut_INVX1
ANAND2X1_2 [_4__0_ rca_inst.cout] _94_ d_lut_NAND2X1
AOAI21X1_2 [rca_inst.cout _93_ _94_] _0__4_ d_lut_OAI21X1
AINVX1_3 [_3__1_] _95_ d_lut_INVX1
ANAND2X1_3 [rca_inst.cout _4__1_] _96_ d_lut_NAND2X1
AOAI21X1_3 [rca_inst.cout _95_ _96_] _0__5_ d_lut_OAI21X1
AINVX1_4 [_3__2_] _97_ d_lut_INVX1
ANAND2X1_4 [rca_inst.cout _4__2_] _98_ d_lut_NAND2X1
AOAI21X1_4 [rca_inst.cout _97_ _98_] _0__6_ d_lut_OAI21X1
AINVX1_5 [_3__3_] _99_ d_lut_INVX1
ANAND2X1_5 [rca_inst.cout _4__3_] _100_ d_lut_NAND2X1
AOAI21X1_5 [rca_inst.cout _99_ _100_] _0__7_ d_lut_OAI21X1
AINVX1_6 [gnd] _104_ d_lut_INVX1
AOR2X2_1 [i_add_term2_4_ i_add_term1_4_] _105_ d_lut_OR2X2
ANAND2X1_6 [i_add_term2_4_ i_add_term1_4_] _106_ d_lut_NAND2X1
ANAND3X1_1 [_104_ _106_ _105_] _107_ d_lut_NAND3X1
ANOR2X1_1 [i_add_term2_4_ i_add_term1_4_] _101_ d_lut_NOR2X1
AAND2X2_1 [i_add_term2_4_ i_add_term1_4_] _102_ d_lut_AND2X2
AOAI21X1_6 [_101_ _102_ gnd] _103_ d_lut_OAI21X1
ANAND2X1_7 [_103_ _107_] _3__0_ d_lut_NAND2X1
AOAI21X1_7 [_104_ _101_ _106_] _5__1_ d_lut_OAI21X1
AINVX1_7 [_5__3_] _111_ d_lut_INVX1
AOR2X2_2 [i_add_term2_7_ i_add_term1_7_] _112_ d_lut_OR2X2
ANAND2X1_8 [i_add_term2_7_ i_add_term1_7_] _113_ d_lut_NAND2X1
ANAND3X1_2 [_111_ _113_ _112_] _114_ d_lut_NAND3X1
ANOR2X1_2 [i_add_term2_7_ i_add_term1_7_] _108_ d_lut_NOR2X1
AAND2X2_2 [i_add_term2_7_ i_add_term1_7_] _109_ d_lut_AND2X2
AOAI21X1_8 [_108_ _109_ _5__3_] _110_ d_lut_OAI21X1
ANAND2X1_9 [_110_ _114_] _3__3_ d_lut_NAND2X1
AOAI21X1_9 [_111_ _108_ _113_] _1_ d_lut_OAI21X1
AINVX1_8 [_5__1_] _118_ d_lut_INVX1
AOR2X2_3 [i_add_term2_5_ i_add_term1_5_] _119_ d_lut_OR2X2
ANAND2X1_10 [i_add_term2_5_ i_add_term1_5_] _120_ d_lut_NAND2X1
ANAND3X1_3 [_118_ _120_ _119_] _121_ d_lut_NAND3X1
ANOR2X1_3 [i_add_term2_5_ i_add_term1_5_] _115_ d_lut_NOR2X1
AAND2X2_3 [i_add_term2_5_ i_add_term1_5_] _116_ d_lut_AND2X2
AOAI21X1_10 [_115_ _116_ _5__1_] _117_ d_lut_OAI21X1
ANAND2X1_11 [_117_ _121_] _3__1_ d_lut_NAND2X1
AOAI21X1_11 [_118_ _115_ _120_] _5__2_ d_lut_OAI21X1
AINVX1_9 [_5__2_] _125_ d_lut_INVX1
AOR2X2_4 [i_add_term2_6_ i_add_term1_6_] _126_ d_lut_OR2X2
ANAND2X1_12 [i_add_term2_6_ i_add_term1_6_] _127_ d_lut_NAND2X1
ANAND3X1_4 [_125_ _127_ _126_] _128_ d_lut_NAND3X1
ANOR2X1_4 [i_add_term2_6_ i_add_term1_6_] _122_ d_lut_NOR2X1
AAND2X2_4 [i_add_term2_6_ i_add_term1_6_] _123_ d_lut_AND2X2
AOAI21X1_12 [_122_ _123_ _5__2_] _124_ d_lut_OAI21X1
ANAND2X1_13 [_124_ _128_] _3__2_ d_lut_NAND2X1
AOAI21X1_13 [_125_ _122_ _127_] _5__3_ d_lut_OAI21X1
AINVX1_10 [vdd] _132_ d_lut_INVX1
AOR2X2_5 [i_add_term2_4_ i_add_term1_4_] _133_ d_lut_OR2X2
ANAND2X1_14 [i_add_term2_4_ i_add_term1_4_] _134_ d_lut_NAND2X1
ANAND3X1_5 [_132_ _134_ _133_] _135_ d_lut_NAND3X1
ANOR2X1_5 [i_add_term2_4_ i_add_term1_4_] _129_ d_lut_NOR2X1
AAND2X2_5 [i_add_term2_4_ i_add_term1_4_] _130_ d_lut_AND2X2
AOAI21X1_14 [_129_ _130_ vdd] _131_ d_lut_OAI21X1
ANAND2X1_15 [_131_ _135_] _4__0_ d_lut_NAND2X1
AOAI21X1_15 [_132_ _129_ _134_] _6__1_ d_lut_OAI21X1
AINVX1_11 [_6__3_] _139_ d_lut_INVX1
AOR2X2_6 [i_add_term2_7_ i_add_term1_7_] _140_ d_lut_OR2X2
ANAND2X1_16 [i_add_term2_7_ i_add_term1_7_] _141_ d_lut_NAND2X1
ANAND3X1_6 [_139_ _141_ _140_] _142_ d_lut_NAND3X1
ANOR2X1_6 [i_add_term2_7_ i_add_term1_7_] _136_ d_lut_NOR2X1
AAND2X2_6 [i_add_term2_7_ i_add_term1_7_] _137_ d_lut_AND2X2
AOAI21X1_16 [_136_ _137_ _6__3_] _138_ d_lut_OAI21X1
ANAND2X1_17 [_138_ _142_] _4__3_ d_lut_NAND2X1
AOAI21X1_17 [_139_ _136_ _141_] _2_ d_lut_OAI21X1
AINVX1_12 [_6__1_] _146_ d_lut_INVX1
AOR2X2_7 [i_add_term2_5_ i_add_term1_5_] _147_ d_lut_OR2X2
ANAND2X1_18 [i_add_term2_5_ i_add_term1_5_] _148_ d_lut_NAND2X1
ANAND3X1_7 [_146_ _148_ _147_] _149_ d_lut_NAND3X1
ANOR2X1_7 [i_add_term2_5_ i_add_term1_5_] _143_ d_lut_NOR2X1
AAND2X2_7 [i_add_term2_5_ i_add_term1_5_] _144_ d_lut_AND2X2
AOAI21X1_18 [_143_ _144_ _6__1_] _145_ d_lut_OAI21X1
ANAND2X1_19 [_145_ _149_] _4__1_ d_lut_NAND2X1
AOAI21X1_19 [_146_ _143_ _148_] _6__2_ d_lut_OAI21X1
AINVX1_13 [_6__2_] _153_ d_lut_INVX1
AOR2X2_8 [i_add_term2_6_ i_add_term1_6_] _154_ d_lut_OR2X2
ANAND2X1_20 [i_add_term2_6_ i_add_term1_6_] _155_ d_lut_NAND2X1
ANAND3X1_8 [_153_ _155_ _154_] _156_ d_lut_NAND3X1
ANOR2X1_8 [i_add_term2_6_ i_add_term1_6_] _150_ d_lut_NOR2X1
AAND2X2_8 [i_add_term2_6_ i_add_term1_6_] _151_ d_lut_AND2X2
AOAI21X1_20 [_150_ _151_ _6__2_] _152_ d_lut_OAI21X1
ANAND2X1_21 [_152_ _156_] _4__2_ d_lut_NAND2X1
AOAI21X1_21 [_153_ _150_ _155_] _6__3_ d_lut_OAI21X1
AINVX1_14 [_7_] _157_ d_lut_INVX1
ANAND2X1_22 [_8_ w_cout_1_] _158_ d_lut_NAND2X1
AOAI21X1_22 [w_cout_1_ _157_ _158_] w_cout_2_ d_lut_OAI21X1
AINVX1_15 [_9__0_] _159_ d_lut_INVX1
ANAND2X1_23 [_10__0_ w_cout_1_] _160_ d_lut_NAND2X1
AOAI21X1_23 [w_cout_1_ _159_ _160_] _0__8_ d_lut_OAI21X1
AINVX1_16 [_9__1_] _161_ d_lut_INVX1
ANAND2X1_24 [w_cout_1_ _10__1_] _162_ d_lut_NAND2X1
AOAI21X1_24 [w_cout_1_ _161_ _162_] _0__9_ d_lut_OAI21X1
AINVX1_17 [_9__2_] _163_ d_lut_INVX1
ANAND2X1_25 [w_cout_1_ _10__2_] _164_ d_lut_NAND2X1
AOAI21X1_25 [w_cout_1_ _163_ _164_] _0__10_ d_lut_OAI21X1
AINVX1_18 [_9__3_] _165_ d_lut_INVX1
ANAND2X1_26 [w_cout_1_ _10__3_] _166_ d_lut_NAND2X1
AOAI21X1_26 [w_cout_1_ _165_ _166_] _0__11_ d_lut_OAI21X1
AINVX1_19 [gnd] _170_ d_lut_INVX1
AOR2X2_9 [i_add_term2_8_ i_add_term1_8_] _171_ d_lut_OR2X2
ANAND2X1_27 [i_add_term2_8_ i_add_term1_8_] _172_ d_lut_NAND2X1
ANAND3X1_9 [_170_ _172_ _171_] _173_ d_lut_NAND3X1
ANOR2X1_9 [i_add_term2_8_ i_add_term1_8_] _167_ d_lut_NOR2X1
AAND2X2_9 [i_add_term2_8_ i_add_term1_8_] _168_ d_lut_AND2X2
AOAI21X1_27 [_167_ _168_ gnd] _169_ d_lut_OAI21X1
ANAND2X1_28 [_169_ _173_] _9__0_ d_lut_NAND2X1
AOAI21X1_28 [_170_ _167_ _172_] _11__1_ d_lut_OAI21X1
AINVX1_20 [_11__3_] _177_ d_lut_INVX1
AOR2X2_10 [i_add_term2_11_ i_add_term1_11_] _178_ d_lut_OR2X2
ANAND2X1_29 [i_add_term2_11_ i_add_term1_11_] _179_ d_lut_NAND2X1
ANAND3X1_10 [_177_ _179_ _178_] _180_ d_lut_NAND3X1
ANOR2X1_10 [i_add_term2_11_ i_add_term1_11_] _174_ d_lut_NOR2X1
AAND2X2_10 [i_add_term2_11_ i_add_term1_11_] _175_ d_lut_AND2X2
AOAI21X1_29 [_174_ _175_ _11__3_] _176_ d_lut_OAI21X1
ANAND2X1_30 [_176_ _180_] _9__3_ d_lut_NAND2X1
AOAI21X1_30 [_177_ _174_ _179_] _7_ d_lut_OAI21X1
AINVX1_21 [_11__1_] _184_ d_lut_INVX1
AOR2X2_11 [i_add_term2_9_ i_add_term1_9_] _185_ d_lut_OR2X2
ANAND2X1_31 [i_add_term2_9_ i_add_term1_9_] _186_ d_lut_NAND2X1
ANAND3X1_11 [_184_ _186_ _185_] _187_ d_lut_NAND3X1
ANOR2X1_11 [i_add_term2_9_ i_add_term1_9_] _181_ d_lut_NOR2X1
AAND2X2_11 [i_add_term2_9_ i_add_term1_9_] _182_ d_lut_AND2X2
AOAI21X1_31 [_181_ _182_ _11__1_] _183_ d_lut_OAI21X1
ANAND2X1_32 [_183_ _187_] _9__1_ d_lut_NAND2X1
AOAI21X1_32 [_184_ _181_ _186_] _11__2_ d_lut_OAI21X1
AINVX1_22 [_11__2_] _191_ d_lut_INVX1
AOR2X2_12 [i_add_term2_10_ i_add_term1_10_] _192_ d_lut_OR2X2
ANAND2X1_33 [i_add_term2_10_ i_add_term1_10_] _193_ d_lut_NAND2X1
ANAND3X1_12 [_191_ _193_ _192_] _194_ d_lut_NAND3X1
ANOR2X1_12 [i_add_term2_10_ i_add_term1_10_] _188_ d_lut_NOR2X1
AAND2X2_12 [i_add_term2_10_ i_add_term1_10_] _189_ d_lut_AND2X2
AOAI21X1_33 [_188_ _189_ _11__2_] _190_ d_lut_OAI21X1
ANAND2X1_34 [_190_ _194_] _9__2_ d_lut_NAND2X1
AOAI21X1_34 [_191_ _188_ _193_] _11__3_ d_lut_OAI21X1
AINVX1_23 [vdd] _198_ d_lut_INVX1
AOR2X2_13 [i_add_term2_8_ i_add_term1_8_] _199_ d_lut_OR2X2
ANAND2X1_35 [i_add_term2_8_ i_add_term1_8_] _200_ d_lut_NAND2X1
ANAND3X1_13 [_198_ _200_ _199_] _201_ d_lut_NAND3X1
ANOR2X1_13 [i_add_term2_8_ i_add_term1_8_] _195_ d_lut_NOR2X1
AAND2X2_13 [i_add_term2_8_ i_add_term1_8_] _196_ d_lut_AND2X2
AOAI21X1_35 [_195_ _196_ vdd] _197_ d_lut_OAI21X1
ANAND2X1_36 [_197_ _201_] _10__0_ d_lut_NAND2X1
AOAI21X1_36 [_198_ _195_ _200_] _12__1_ d_lut_OAI21X1
AINVX1_24 [_12__3_] _205_ d_lut_INVX1
AOR2X2_14 [i_add_term2_11_ i_add_term1_11_] _206_ d_lut_OR2X2
ANAND2X1_37 [i_add_term2_11_ i_add_term1_11_] _207_ d_lut_NAND2X1
ANAND3X1_14 [_205_ _207_ _206_] _208_ d_lut_NAND3X1
ANOR2X1_14 [i_add_term2_11_ i_add_term1_11_] _202_ d_lut_NOR2X1
AAND2X2_14 [i_add_term2_11_ i_add_term1_11_] _203_ d_lut_AND2X2
AOAI21X1_37 [_202_ _203_ _12__3_] _204_ d_lut_OAI21X1
ANAND2X1_38 [_204_ _208_] _10__3_ d_lut_NAND2X1
AOAI21X1_38 [_205_ _202_ _207_] _8_ d_lut_OAI21X1
AINVX1_25 [_12__1_] _212_ d_lut_INVX1
AOR2X2_15 [i_add_term2_9_ i_add_term1_9_] _213_ d_lut_OR2X2
ANAND2X1_39 [i_add_term2_9_ i_add_term1_9_] _214_ d_lut_NAND2X1
ANAND3X1_15 [_212_ _214_ _213_] _215_ d_lut_NAND3X1
ANOR2X1_15 [i_add_term2_9_ i_add_term1_9_] _209_ d_lut_NOR2X1
AAND2X2_15 [i_add_term2_9_ i_add_term1_9_] _210_ d_lut_AND2X2
AOAI21X1_39 [_209_ _210_ _12__1_] _211_ d_lut_OAI21X1
ANAND2X1_40 [_211_ _215_] _10__1_ d_lut_NAND2X1
AOAI21X1_40 [_212_ _209_ _214_] _12__2_ d_lut_OAI21X1
AINVX1_26 [_12__2_] _219_ d_lut_INVX1
AOR2X2_16 [i_add_term2_10_ i_add_term1_10_] _220_ d_lut_OR2X2
ANAND2X1_41 [i_add_term2_10_ i_add_term1_10_] _221_ d_lut_NAND2X1
ANAND3X1_16 [_219_ _221_ _220_] _222_ d_lut_NAND3X1
ANOR2X1_16 [i_add_term2_10_ i_add_term1_10_] _216_ d_lut_NOR2X1
AAND2X2_16 [i_add_term2_10_ i_add_term1_10_] _217_ d_lut_AND2X2
AOAI21X1_41 [_216_ _217_ _12__2_] _218_ d_lut_OAI21X1
ANAND2X1_42 [_218_ _222_] _10__2_ d_lut_NAND2X1
AOAI21X1_42 [_219_ _216_ _221_] _12__3_ d_lut_OAI21X1
AINVX1_27 [_13_] _223_ d_lut_INVX1
ANAND2X1_43 [_14_ w_cout_2_] _224_ d_lut_NAND2X1
AOAI21X1_43 [w_cout_2_ _223_ _224_] w_cout_3_ d_lut_OAI21X1
AINVX1_28 [_15__0_] _225_ d_lut_INVX1
ANAND2X1_44 [_16__0_ w_cout_2_] _226_ d_lut_NAND2X1
AOAI21X1_44 [w_cout_2_ _225_ _226_] _0__12_ d_lut_OAI21X1
AINVX1_29 [_15__1_] _227_ d_lut_INVX1
ANAND2X1_45 [w_cout_2_ _16__1_] _228_ d_lut_NAND2X1
AOAI21X1_45 [w_cout_2_ _227_ _228_] _0__13_ d_lut_OAI21X1
AINVX1_30 [_15__2_] _229_ d_lut_INVX1
ANAND2X1_46 [w_cout_2_ _16__2_] _230_ d_lut_NAND2X1
AOAI21X1_46 [w_cout_2_ _229_ _230_] _0__14_ d_lut_OAI21X1
AINVX1_31 [_15__3_] _231_ d_lut_INVX1
ANAND2X1_47 [w_cout_2_ _16__3_] _232_ d_lut_NAND2X1
AOAI21X1_47 [w_cout_2_ _231_ _232_] _0__15_ d_lut_OAI21X1
AINVX1_32 [gnd] _236_ d_lut_INVX1
AOR2X2_17 [i_add_term2_12_ i_add_term1_12_] _237_ d_lut_OR2X2
ANAND2X1_48 [i_add_term2_12_ i_add_term1_12_] _238_ d_lut_NAND2X1
ANAND3X1_17 [_236_ _238_ _237_] _239_ d_lut_NAND3X1
ANOR2X1_17 [i_add_term2_12_ i_add_term1_12_] _233_ d_lut_NOR2X1
AAND2X2_17 [i_add_term2_12_ i_add_term1_12_] _234_ d_lut_AND2X2
AOAI21X1_48 [_233_ _234_ gnd] _235_ d_lut_OAI21X1
ANAND2X1_49 [_235_ _239_] _15__0_ d_lut_NAND2X1
AOAI21X1_49 [_236_ _233_ _238_] _17__1_ d_lut_OAI21X1
AINVX1_33 [_17__3_] _243_ d_lut_INVX1
AOR2X2_18 [i_add_term2_15_ i_add_term1_15_] _244_ d_lut_OR2X2
ANAND2X1_50 [i_add_term2_15_ i_add_term1_15_] _245_ d_lut_NAND2X1
ANAND3X1_18 [_243_ _245_ _244_] _246_ d_lut_NAND3X1
ANOR2X1_18 [i_add_term2_15_ i_add_term1_15_] _240_ d_lut_NOR2X1
AAND2X2_18 [i_add_term2_15_ i_add_term1_15_] _241_ d_lut_AND2X2
AOAI21X1_50 [_240_ _241_ _17__3_] _242_ d_lut_OAI21X1
ANAND2X1_51 [_242_ _246_] _15__3_ d_lut_NAND2X1
AOAI21X1_51 [_243_ _240_ _245_] _13_ d_lut_OAI21X1
AINVX1_34 [_17__1_] _250_ d_lut_INVX1
AOR2X2_19 [i_add_term2_13_ i_add_term1_13_] _251_ d_lut_OR2X2
ANAND2X1_52 [i_add_term2_13_ i_add_term1_13_] _252_ d_lut_NAND2X1
ANAND3X1_19 [_250_ _252_ _251_] _253_ d_lut_NAND3X1
ANOR2X1_19 [i_add_term2_13_ i_add_term1_13_] _247_ d_lut_NOR2X1
AAND2X2_19 [i_add_term2_13_ i_add_term1_13_] _248_ d_lut_AND2X2
AOAI21X1_52 [_247_ _248_ _17__1_] _249_ d_lut_OAI21X1
ANAND2X1_53 [_249_ _253_] _15__1_ d_lut_NAND2X1
AOAI21X1_53 [_250_ _247_ _252_] _17__2_ d_lut_OAI21X1
AINVX1_35 [_17__2_] _257_ d_lut_INVX1
AOR2X2_20 [i_add_term2_14_ i_add_term1_14_] _258_ d_lut_OR2X2
ANAND2X1_54 [i_add_term2_14_ i_add_term1_14_] _259_ d_lut_NAND2X1
ANAND3X1_20 [_257_ _259_ _258_] _260_ d_lut_NAND3X1
ANOR2X1_20 [i_add_term2_14_ i_add_term1_14_] _254_ d_lut_NOR2X1
AAND2X2_20 [i_add_term2_14_ i_add_term1_14_] _255_ d_lut_AND2X2
AOAI21X1_54 [_254_ _255_ _17__2_] _256_ d_lut_OAI21X1
ANAND2X1_55 [_256_ _260_] _15__2_ d_lut_NAND2X1
AOAI21X1_55 [_257_ _254_ _259_] _17__3_ d_lut_OAI21X1
AINVX1_36 [vdd] _264_ d_lut_INVX1
AOR2X2_21 [i_add_term2_12_ i_add_term1_12_] _265_ d_lut_OR2X2
ANAND2X1_56 [i_add_term2_12_ i_add_term1_12_] _266_ d_lut_NAND2X1
ANAND3X1_21 [_264_ _266_ _265_] _267_ d_lut_NAND3X1
ANOR2X1_21 [i_add_term2_12_ i_add_term1_12_] _261_ d_lut_NOR2X1
AAND2X2_21 [i_add_term2_12_ i_add_term1_12_] _262_ d_lut_AND2X2
AOAI21X1_56 [_261_ _262_ vdd] _263_ d_lut_OAI21X1
ANAND2X1_57 [_263_ _267_] _16__0_ d_lut_NAND2X1
AOAI21X1_57 [_264_ _261_ _266_] _18__1_ d_lut_OAI21X1
AINVX1_37 [_18__3_] _271_ d_lut_INVX1
AOR2X2_22 [i_add_term2_15_ i_add_term1_15_] _272_ d_lut_OR2X2
ANAND2X1_58 [i_add_term2_15_ i_add_term1_15_] _273_ d_lut_NAND2X1
ANAND3X1_22 [_271_ _273_ _272_] _274_ d_lut_NAND3X1
ANOR2X1_22 [i_add_term2_15_ i_add_term1_15_] _268_ d_lut_NOR2X1
AAND2X2_22 [i_add_term2_15_ i_add_term1_15_] _269_ d_lut_AND2X2
AOAI21X1_58 [_268_ _269_ _18__3_] _270_ d_lut_OAI21X1
ANAND2X1_59 [_270_ _274_] _16__3_ d_lut_NAND2X1
AOAI21X1_59 [_271_ _268_ _273_] _14_ d_lut_OAI21X1
AINVX1_38 [_18__1_] _278_ d_lut_INVX1
AOR2X2_23 [i_add_term2_13_ i_add_term1_13_] _279_ d_lut_OR2X2
ANAND2X1_60 [i_add_term2_13_ i_add_term1_13_] _280_ d_lut_NAND2X1
ANAND3X1_23 [_278_ _280_ _279_] _281_ d_lut_NAND3X1
ANOR2X1_23 [i_add_term2_13_ i_add_term1_13_] _275_ d_lut_NOR2X1
AAND2X2_23 [i_add_term2_13_ i_add_term1_13_] _276_ d_lut_AND2X2
AOAI21X1_60 [_275_ _276_ _18__1_] _277_ d_lut_OAI21X1
ANAND2X1_61 [_277_ _281_] _16__1_ d_lut_NAND2X1
AOAI21X1_61 [_278_ _275_ _280_] _18__2_ d_lut_OAI21X1
AINVX1_39 [_18__2_] _285_ d_lut_INVX1
AOR2X2_24 [i_add_term2_14_ i_add_term1_14_] _286_ d_lut_OR2X2
ANAND2X1_62 [i_add_term2_14_ i_add_term1_14_] _287_ d_lut_NAND2X1
ANAND3X1_24 [_285_ _287_ _286_] _288_ d_lut_NAND3X1
ANOR2X1_24 [i_add_term2_14_ i_add_term1_14_] _282_ d_lut_NOR2X1
AAND2X2_24 [i_add_term2_14_ i_add_term1_14_] _283_ d_lut_AND2X2
AOAI21X1_62 [_282_ _283_ _18__2_] _284_ d_lut_OAI21X1
ANAND2X1_63 [_284_ _288_] _16__2_ d_lut_NAND2X1
AOAI21X1_63 [_285_ _282_ _287_] _18__3_ d_lut_OAI21X1
AINVX1_40 [_19_] _289_ d_lut_INVX1
ANAND2X1_64 [_20_ w_cout_3_] _290_ d_lut_NAND2X1
AOAI21X1_64 [w_cout_3_ _289_ _290_] w_cout_4_ d_lut_OAI21X1
AINVX1_41 [_21__0_] _291_ d_lut_INVX1
ANAND2X1_65 [_22__0_ w_cout_3_] _292_ d_lut_NAND2X1
AOAI21X1_65 [w_cout_3_ _291_ _292_] _0__16_ d_lut_OAI21X1
AINVX1_42 [_21__1_] _293_ d_lut_INVX1
ANAND2X1_66 [w_cout_3_ _22__1_] _294_ d_lut_NAND2X1
AOAI21X1_66 [w_cout_3_ _293_ _294_] _0__17_ d_lut_OAI21X1
AINVX1_43 [_21__2_] _295_ d_lut_INVX1
ANAND2X1_67 [w_cout_3_ _22__2_] _296_ d_lut_NAND2X1
AOAI21X1_67 [w_cout_3_ _295_ _296_] _0__18_ d_lut_OAI21X1
AINVX1_44 [_21__3_] _297_ d_lut_INVX1
ANAND2X1_68 [w_cout_3_ _22__3_] _298_ d_lut_NAND2X1
AOAI21X1_68 [w_cout_3_ _297_ _298_] _0__19_ d_lut_OAI21X1
AINVX1_45 [gnd] _302_ d_lut_INVX1
AOR2X2_25 [i_add_term2_16_ i_add_term1_16_] _303_ d_lut_OR2X2
ANAND2X1_69 [i_add_term2_16_ i_add_term1_16_] _304_ d_lut_NAND2X1
ANAND3X1_25 [_302_ _304_ _303_] _305_ d_lut_NAND3X1
ANOR2X1_25 [i_add_term2_16_ i_add_term1_16_] _299_ d_lut_NOR2X1
AAND2X2_25 [i_add_term2_16_ i_add_term1_16_] _300_ d_lut_AND2X2
AOAI21X1_69 [_299_ _300_ gnd] _301_ d_lut_OAI21X1
ANAND2X1_70 [_301_ _305_] _21__0_ d_lut_NAND2X1
AOAI21X1_70 [_302_ _299_ _304_] _23__1_ d_lut_OAI21X1
AINVX1_46 [_23__3_] _309_ d_lut_INVX1
AOR2X2_26 [i_add_term2_19_ i_add_term1_19_] _310_ d_lut_OR2X2
ANAND2X1_71 [i_add_term2_19_ i_add_term1_19_] _311_ d_lut_NAND2X1
ANAND3X1_26 [_309_ _311_ _310_] _312_ d_lut_NAND3X1
ANOR2X1_26 [i_add_term2_19_ i_add_term1_19_] _306_ d_lut_NOR2X1
AAND2X2_26 [i_add_term2_19_ i_add_term1_19_] _307_ d_lut_AND2X2
AOAI21X1_71 [_306_ _307_ _23__3_] _308_ d_lut_OAI21X1
ANAND2X1_72 [_308_ _312_] _21__3_ d_lut_NAND2X1
AOAI21X1_72 [_309_ _306_ _311_] _19_ d_lut_OAI21X1
AINVX1_47 [_23__1_] _316_ d_lut_INVX1
AOR2X2_27 [i_add_term2_17_ i_add_term1_17_] _317_ d_lut_OR2X2
ANAND2X1_73 [i_add_term2_17_ i_add_term1_17_] _318_ d_lut_NAND2X1
ANAND3X1_27 [_316_ _318_ _317_] _319_ d_lut_NAND3X1
ANOR2X1_27 [i_add_term2_17_ i_add_term1_17_] _313_ d_lut_NOR2X1
AAND2X2_27 [i_add_term2_17_ i_add_term1_17_] _314_ d_lut_AND2X2
AOAI21X1_73 [_313_ _314_ _23__1_] _315_ d_lut_OAI21X1
ANAND2X1_74 [_315_ _319_] _21__1_ d_lut_NAND2X1
AOAI21X1_74 [_316_ _313_ _318_] _23__2_ d_lut_OAI21X1
AINVX1_48 [_23__2_] _323_ d_lut_INVX1
AOR2X2_28 [i_add_term2_18_ i_add_term1_18_] _324_ d_lut_OR2X2
ANAND2X1_75 [i_add_term2_18_ i_add_term1_18_] _325_ d_lut_NAND2X1
ANAND3X1_28 [_323_ _325_ _324_] _326_ d_lut_NAND3X1
ANOR2X1_28 [i_add_term2_18_ i_add_term1_18_] _320_ d_lut_NOR2X1
AAND2X2_28 [i_add_term2_18_ i_add_term1_18_] _321_ d_lut_AND2X2
AOAI21X1_75 [_320_ _321_ _23__2_] _322_ d_lut_OAI21X1
ANAND2X1_76 [_322_ _326_] _21__2_ d_lut_NAND2X1
AOAI21X1_76 [_323_ _320_ _325_] _23__3_ d_lut_OAI21X1
AINVX1_49 [vdd] _330_ d_lut_INVX1
AOR2X2_29 [i_add_term2_16_ i_add_term1_16_] _331_ d_lut_OR2X2
ANAND2X1_77 [i_add_term2_16_ i_add_term1_16_] _332_ d_lut_NAND2X1
ANAND3X1_29 [_330_ _332_ _331_] _333_ d_lut_NAND3X1
ANOR2X1_29 [i_add_term2_16_ i_add_term1_16_] _327_ d_lut_NOR2X1
AAND2X2_29 [i_add_term2_16_ i_add_term1_16_] _328_ d_lut_AND2X2
AOAI21X1_77 [_327_ _328_ vdd] _329_ d_lut_OAI21X1
ANAND2X1_78 [_329_ _333_] _22__0_ d_lut_NAND2X1
AOAI21X1_78 [_330_ _327_ _332_] _24__1_ d_lut_OAI21X1
AINVX1_50 [_24__3_] _337_ d_lut_INVX1
AOR2X2_30 [i_add_term2_19_ i_add_term1_19_] _338_ d_lut_OR2X2
ANAND2X1_79 [i_add_term2_19_ i_add_term1_19_] _339_ d_lut_NAND2X1
ANAND3X1_30 [_337_ _339_ _338_] _340_ d_lut_NAND3X1
ANOR2X1_30 [i_add_term2_19_ i_add_term1_19_] _334_ d_lut_NOR2X1
AAND2X2_30 [i_add_term2_19_ i_add_term1_19_] _335_ d_lut_AND2X2
AOAI21X1_79 [_334_ _335_ _24__3_] _336_ d_lut_OAI21X1
ANAND2X1_80 [_336_ _340_] _22__3_ d_lut_NAND2X1
AOAI21X1_80 [_337_ _334_ _339_] _20_ d_lut_OAI21X1
AINVX1_51 [_24__1_] _344_ d_lut_INVX1
AOR2X2_31 [i_add_term2_17_ i_add_term1_17_] _345_ d_lut_OR2X2
ANAND2X1_81 [i_add_term2_17_ i_add_term1_17_] _346_ d_lut_NAND2X1
ANAND3X1_31 [_344_ _346_ _345_] _347_ d_lut_NAND3X1
ANOR2X1_31 [i_add_term2_17_ i_add_term1_17_] _341_ d_lut_NOR2X1
AAND2X2_31 [i_add_term2_17_ i_add_term1_17_] _342_ d_lut_AND2X2
AOAI21X1_81 [_341_ _342_ _24__1_] _343_ d_lut_OAI21X1
ANAND2X1_82 [_343_ _347_] _22__1_ d_lut_NAND2X1
AOAI21X1_82 [_344_ _341_ _346_] _24__2_ d_lut_OAI21X1
AINVX1_52 [_24__2_] _351_ d_lut_INVX1
AOR2X2_32 [i_add_term2_18_ i_add_term1_18_] _352_ d_lut_OR2X2
ANAND2X1_83 [i_add_term2_18_ i_add_term1_18_] _353_ d_lut_NAND2X1
ANAND3X1_32 [_351_ _353_ _352_] _354_ d_lut_NAND3X1
ANOR2X1_32 [i_add_term2_18_ i_add_term1_18_] _348_ d_lut_NOR2X1
AAND2X2_32 [i_add_term2_18_ i_add_term1_18_] _349_ d_lut_AND2X2
AOAI21X1_83 [_348_ _349_ _24__2_] _350_ d_lut_OAI21X1
ANAND2X1_84 [_350_ _354_] _22__2_ d_lut_NAND2X1
AOAI21X1_84 [_351_ _348_ _353_] _24__3_ d_lut_OAI21X1
AINVX1_53 [_25_] _355_ d_lut_INVX1
ANAND2X1_85 [_26_ w_cout_4_] _356_ d_lut_NAND2X1
AOAI21X1_85 [w_cout_4_ _355_ _356_] w_cout_5_ d_lut_OAI21X1
AINVX1_54 [_27__0_] _357_ d_lut_INVX1
ANAND2X1_86 [_28__0_ w_cout_4_] _358_ d_lut_NAND2X1
AOAI21X1_86 [w_cout_4_ _357_ _358_] _0__20_ d_lut_OAI21X1
AINVX1_55 [_27__1_] _359_ d_lut_INVX1
ANAND2X1_87 [w_cout_4_ _28__1_] _360_ d_lut_NAND2X1
AOAI21X1_87 [w_cout_4_ _359_ _360_] _0__21_ d_lut_OAI21X1
AINVX1_56 [_27__2_] _361_ d_lut_INVX1
ANAND2X1_88 [w_cout_4_ _28__2_] _362_ d_lut_NAND2X1
AOAI21X1_88 [w_cout_4_ _361_ _362_] _0__22_ d_lut_OAI21X1
AINVX1_57 [_27__3_] _363_ d_lut_INVX1
ANAND2X1_89 [w_cout_4_ _28__3_] _364_ d_lut_NAND2X1
AOAI21X1_89 [w_cout_4_ _363_ _364_] _0__23_ d_lut_OAI21X1
AINVX1_58 [gnd] _368_ d_lut_INVX1
AOR2X2_33 [i_add_term2_20_ i_add_term1_20_] _369_ d_lut_OR2X2
ANAND2X1_90 [i_add_term2_20_ i_add_term1_20_] _370_ d_lut_NAND2X1
ANAND3X1_33 [_368_ _370_ _369_] _371_ d_lut_NAND3X1
ANOR2X1_33 [i_add_term2_20_ i_add_term1_20_] _365_ d_lut_NOR2X1
AAND2X2_33 [i_add_term2_20_ i_add_term1_20_] _366_ d_lut_AND2X2
AOAI21X1_90 [_365_ _366_ gnd] _367_ d_lut_OAI21X1
ANAND2X1_91 [_367_ _371_] _27__0_ d_lut_NAND2X1
AOAI21X1_91 [_368_ _365_ _370_] _29__1_ d_lut_OAI21X1
AINVX1_59 [_29__3_] _375_ d_lut_INVX1
AOR2X2_34 [i_add_term2_23_ i_add_term1_23_] _376_ d_lut_OR2X2
ANAND2X1_92 [i_add_term2_23_ i_add_term1_23_] _377_ d_lut_NAND2X1
ANAND3X1_34 [_375_ _377_ _376_] _378_ d_lut_NAND3X1
ANOR2X1_34 [i_add_term2_23_ i_add_term1_23_] _372_ d_lut_NOR2X1
AAND2X2_34 [i_add_term2_23_ i_add_term1_23_] _373_ d_lut_AND2X2
AOAI21X1_92 [_372_ _373_ _29__3_] _374_ d_lut_OAI21X1
ANAND2X1_93 [_374_ _378_] _27__3_ d_lut_NAND2X1
AOAI21X1_93 [_375_ _372_ _377_] _25_ d_lut_OAI21X1
AINVX1_60 [_29__1_] _382_ d_lut_INVX1
AOR2X2_35 [i_add_term2_21_ i_add_term1_21_] _383_ d_lut_OR2X2
ANAND2X1_94 [i_add_term2_21_ i_add_term1_21_] _384_ d_lut_NAND2X1
ANAND3X1_35 [_382_ _384_ _383_] _385_ d_lut_NAND3X1
ANOR2X1_35 [i_add_term2_21_ i_add_term1_21_] _379_ d_lut_NOR2X1
AAND2X2_35 [i_add_term2_21_ i_add_term1_21_] _380_ d_lut_AND2X2
AOAI21X1_94 [_379_ _380_ _29__1_] _381_ d_lut_OAI21X1
ANAND2X1_95 [_381_ _385_] _27__1_ d_lut_NAND2X1
AOAI21X1_95 [_382_ _379_ _384_] _29__2_ d_lut_OAI21X1
AINVX1_61 [_29__2_] _389_ d_lut_INVX1
AOR2X2_36 [i_add_term2_22_ i_add_term1_22_] _390_ d_lut_OR2X2
ANAND2X1_96 [i_add_term2_22_ i_add_term1_22_] _391_ d_lut_NAND2X1
ANAND3X1_36 [_389_ _391_ _390_] _392_ d_lut_NAND3X1
ANOR2X1_36 [i_add_term2_22_ i_add_term1_22_] _386_ d_lut_NOR2X1
AAND2X2_36 [i_add_term2_22_ i_add_term1_22_] _387_ d_lut_AND2X2
AOAI21X1_96 [_386_ _387_ _29__2_] _388_ d_lut_OAI21X1
ANAND2X1_97 [_388_ _392_] _27__2_ d_lut_NAND2X1
AOAI21X1_97 [_389_ _386_ _391_] _29__3_ d_lut_OAI21X1
AINVX1_62 [vdd] _396_ d_lut_INVX1
AOR2X2_37 [i_add_term2_20_ i_add_term1_20_] _397_ d_lut_OR2X2
ANAND2X1_98 [i_add_term2_20_ i_add_term1_20_] _398_ d_lut_NAND2X1
ANAND3X1_37 [_396_ _398_ _397_] _399_ d_lut_NAND3X1
ANOR2X1_37 [i_add_term2_20_ i_add_term1_20_] _393_ d_lut_NOR2X1
AAND2X2_37 [i_add_term2_20_ i_add_term1_20_] _394_ d_lut_AND2X2
AOAI21X1_98 [_393_ _394_ vdd] _395_ d_lut_OAI21X1
ANAND2X1_99 [_395_ _399_] _28__0_ d_lut_NAND2X1
AOAI21X1_99 [_396_ _393_ _398_] _30__1_ d_lut_OAI21X1
AINVX1_63 [_30__3_] _403_ d_lut_INVX1
AOR2X2_38 [i_add_term2_23_ i_add_term1_23_] _404_ d_lut_OR2X2
ANAND2X1_100 [i_add_term2_23_ i_add_term1_23_] _405_ d_lut_NAND2X1
ANAND3X1_38 [_403_ _405_ _404_] _406_ d_lut_NAND3X1
ANOR2X1_38 [i_add_term2_23_ i_add_term1_23_] _400_ d_lut_NOR2X1
AAND2X2_38 [i_add_term2_23_ i_add_term1_23_] _401_ d_lut_AND2X2
AOAI21X1_100 [_400_ _401_ _30__3_] _402_ d_lut_OAI21X1
ANAND2X1_101 [_402_ _406_] _28__3_ d_lut_NAND2X1
AOAI21X1_101 [_403_ _400_ _405_] _26_ d_lut_OAI21X1
AINVX1_64 [_30__1_] _410_ d_lut_INVX1
AOR2X2_39 [i_add_term2_21_ i_add_term1_21_] _411_ d_lut_OR2X2
ANAND2X1_102 [i_add_term2_21_ i_add_term1_21_] _412_ d_lut_NAND2X1
ANAND3X1_39 [_410_ _412_ _411_] _413_ d_lut_NAND3X1
ANOR2X1_39 [i_add_term2_21_ i_add_term1_21_] _407_ d_lut_NOR2X1
AAND2X2_39 [i_add_term2_21_ i_add_term1_21_] _408_ d_lut_AND2X2
AOAI21X1_102 [_407_ _408_ _30__1_] _409_ d_lut_OAI21X1
ANAND2X1_103 [_409_ _413_] _28__1_ d_lut_NAND2X1
AOAI21X1_103 [_410_ _407_ _412_] _30__2_ d_lut_OAI21X1
AINVX1_65 [_30__2_] _417_ d_lut_INVX1
AOR2X2_40 [i_add_term2_22_ i_add_term1_22_] _418_ d_lut_OR2X2
ANAND2X1_104 [i_add_term2_22_ i_add_term1_22_] _419_ d_lut_NAND2X1
ANAND3X1_40 [_417_ _419_ _418_] _420_ d_lut_NAND3X1
ANOR2X1_40 [i_add_term2_22_ i_add_term1_22_] _414_ d_lut_NOR2X1
AAND2X2_40 [i_add_term2_22_ i_add_term1_22_] _415_ d_lut_AND2X2
AOAI21X1_104 [_414_ _415_ _30__2_] _416_ d_lut_OAI21X1
ANAND2X1_105 [_416_ _420_] _28__2_ d_lut_NAND2X1
AOAI21X1_105 [_417_ _414_ _419_] _30__3_ d_lut_OAI21X1
AINVX1_66 [_31_] _421_ d_lut_INVX1
ANAND2X1_106 [_32_ w_cout_5_] _422_ d_lut_NAND2X1
AOAI21X1_106 [w_cout_5_ _421_ _422_] w_cout_6_ d_lut_OAI21X1
AINVX1_67 [_33__0_] _423_ d_lut_INVX1
ANAND2X1_107 [_34__0_ w_cout_5_] _424_ d_lut_NAND2X1
AOAI21X1_107 [w_cout_5_ _423_ _424_] _0__24_ d_lut_OAI21X1
AINVX1_68 [_33__1_] _425_ d_lut_INVX1
ANAND2X1_108 [w_cout_5_ _34__1_] _426_ d_lut_NAND2X1
AOAI21X1_108 [w_cout_5_ _425_ _426_] _0__25_ d_lut_OAI21X1
AINVX1_69 [_33__2_] _427_ d_lut_INVX1
ANAND2X1_109 [w_cout_5_ _34__2_] _428_ d_lut_NAND2X1
AOAI21X1_109 [w_cout_5_ _427_ _428_] _0__26_ d_lut_OAI21X1
AINVX1_70 [_33__3_] _429_ d_lut_INVX1
ANAND2X1_110 [w_cout_5_ _34__3_] _430_ d_lut_NAND2X1
AOAI21X1_110 [w_cout_5_ _429_ _430_] _0__27_ d_lut_OAI21X1
AINVX1_71 [gnd] _434_ d_lut_INVX1