* XSpice netlist created from SPICE and liberty sources by spi2xspice.py
*SPICE netlist created from BLIF module csa_46bit by blif2BSpice
.subckt csa_46bit a_vdd a_gnd a_i_add_term1_0_ a_i_add_term1_1_ a_i_add_term1_2_ a_i_add_term1_3_ a_i_add_term1_4_ a_i_add_term1_5_ a_i_add_term1_6_ a_i_add_term1_7_ a_i_add_term1_8_ a_i_add_term1_9_ a_i_add_term1_10_ a_i_add_term1_11_ a_i_add_term1_12_ a_i_add_term1_13_ a_i_add_term1_14_ a_i_add_term1_15_ a_i_add_term1_16_ a_i_add_term1_17_ a_i_add_term1_18_ a_i_add_term1_19_ a_i_add_term1_20_ a_i_add_term1_21_ a_i_add_term1_22_ a_i_add_term1_23_ a_i_add_term1_24_ a_i_add_term1_25_ a_i_add_term1_26_ a_i_add_term1_27_ a_i_add_term1_28_ a_i_add_term1_29_ a_i_add_term1_30_ a_i_add_term1_31_ a_i_add_term1_32_ a_i_add_term1_33_ a_i_add_term1_34_ a_i_add_term1_35_ a_i_add_term1_36_ a_i_add_term1_37_ a_i_add_term1_38_ a_i_add_term1_39_ a_i_add_term1_40_ a_i_add_term1_41_ a_i_add_term1_42_ a_i_add_term1_43_ a_i_add_term1_44_ a_i_add_term1_45_ a_i_add_term2_0_ a_i_add_term2_1_ a_i_add_term2_2_ a_i_add_term2_3_ a_i_add_term2_4_ a_i_add_term2_5_ a_i_add_term2_6_ a_i_add_term2_7_ a_i_add_term2_8_ a_i_add_term2_9_ a_i_add_term2_10_ a_i_add_term2_11_ a_i_add_term2_12_ a_i_add_term2_13_ a_i_add_term2_14_ a_i_add_term2_15_ a_i_add_term2_16_ a_i_add_term2_17_ a_i_add_term2_18_ a_i_add_term2_19_ a_i_add_term2_20_ a_i_add_term2_21_ a_i_add_term2_22_ a_i_add_term2_23_ a_i_add_term2_24_ a_i_add_term2_25_ a_i_add_term2_26_ a_i_add_term2_27_ a_i_add_term2_28_ a_i_add_term2_29_ a_i_add_term2_30_ a_i_add_term2_31_ a_i_add_term2_32_ a_i_add_term2_33_ a_i_add_term2_34_ a_i_add_term2_35_ a_i_add_term2_36_ a_i_add_term2_37_ a_i_add_term2_38_ a_i_add_term2_39_ a_i_add_term2_40_ a_i_add_term2_41_ a_i_add_term2_42_ a_i_add_term2_43_ a_i_add_term2_44_ a_i_add_term2_45_ a_sum_0_ a_sum_1_ a_sum_2_ a_sum_3_ a_sum_4_ a_sum_5_ a_sum_6_ a_sum_7_ a_sum_8_ a_sum_9_ a_sum_10_ a_sum_11_ a_sum_12_ a_sum_13_ a_sum_14_ a_sum_15_ a_sum_16_ a_sum_17_ a_sum_18_ a_sum_19_ a_sum_20_ a_sum_21_ a_sum_22_ a_sum_23_ a_sum_24_ a_sum_25_ a_sum_26_ a_sum_27_ a_sum_28_ a_sum_29_ a_sum_30_ a_sum_31_ a_sum_32_ a_sum_33_ a_sum_34_ a_sum_35_ a_sum_36_ a_sum_37_ a_sum_38_ a_sum_39_ a_sum_40_ a_sum_41_ a_sum_42_ a_sum_43_ a_sum_44_ a_sum_45_ a_cout
AAND2X2_1 [i_add_term2_10_ i_add_term1_10_] _187_ d_lut_AND2X2
AOAI21X1_1 [_186_ _187_ _12__2_] _188_ d_lut_OAI21X1
ANAND2X1_1 [_188_ _192_] _10__2_ d_lut_NAND2X1
AOAI21X1_2 [_189_ _186_ _191_] _12__3_ d_lut_OAI21X1
AINVX1_1 [_13_] _193_ d_lut_INVX1
ANAND2X1_2 [_14_ w_cout_2_] _194_ d_lut_NAND2X1
AOAI21X1_3 [w_cout_2_ _193_ _194_] w_cout_3_ d_lut_OAI21X1
AINVX1_2 [_15__0_] _195_ d_lut_INVX1
ANAND2X1_3 [_16__0_ w_cout_2_] _196_ d_lut_NAND2X1
AOAI21X1_4 [w_cout_2_ _195_ _196_] _0__12_ d_lut_OAI21X1
AINVX1_3 [_15__1_] _197_ d_lut_INVX1
ANAND2X1_4 [w_cout_2_ _16__1_] _198_ d_lut_NAND2X1
AOAI21X1_5 [w_cout_2_ _197_ _198_] _0__13_ d_lut_OAI21X1
AINVX1_4 [_15__2_] _199_ d_lut_INVX1
ANAND2X1_5 [w_cout_2_ _16__2_] _200_ d_lut_NAND2X1
AOAI21X1_6 [w_cout_2_ _199_ _200_] _0__14_ d_lut_OAI21X1
AINVX1_5 [_15__3_] _201_ d_lut_INVX1
ANAND2X1_6 [w_cout_2_ _16__3_] _202_ d_lut_NAND2X1
AOAI21X1_7 [w_cout_2_ _201_ _202_] _0__15_ d_lut_OAI21X1
AINVX1_6 [gnd] _206_ d_lut_INVX1
AOR2X2_1 [i_add_term2_12_ i_add_term1_12_] _207_ d_lut_OR2X2
ANAND2X1_7 [i_add_term2_12_ i_add_term1_12_] _208_ d_lut_NAND2X1
ANAND3X1_1 [_206_ _208_ _207_] _209_ d_lut_NAND3X1
ANOR2X1_1 [i_add_term2_12_ i_add_term1_12_] _203_ d_lut_NOR2X1
AAND2X2_2 [i_add_term2_12_ i_add_term1_12_] _204_ d_lut_AND2X2
AOAI21X1_8 [_203_ _204_ gnd] _205_ d_lut_OAI21X1
ANAND2X1_8 [_205_ _209_] _15__0_ d_lut_NAND2X1
AOAI21X1_9 [_206_ _203_ _208_] _17__1_ d_lut_OAI21X1
AINVX1_7 [_17__3_] _213_ d_lut_INVX1
AOR2X2_2 [i_add_term2_15_ i_add_term1_15_] _214_ d_lut_OR2X2
ANAND2X1_9 [i_add_term2_15_ i_add_term1_15_] _215_ d_lut_NAND2X1
ANAND3X1_2 [_213_ _215_ _214_] _216_ d_lut_NAND3X1
ANOR2X1_2 [i_add_term2_15_ i_add_term1_15_] _210_ d_lut_NOR2X1
AAND2X2_3 [i_add_term2_15_ i_add_term1_15_] _211_ d_lut_AND2X2
AOAI21X1_10 [_210_ _211_ _17__3_] _212_ d_lut_OAI21X1
ANAND2X1_10 [_212_ _216_] _15__3_ d_lut_NAND2X1
AOAI21X1_11 [_213_ _210_ _215_] _13_ d_lut_OAI21X1
AINVX1_8 [_17__1_] _220_ d_lut_INVX1
AOR2X2_3 [i_add_term2_13_ i_add_term1_13_] _221_ d_lut_OR2X2
ANAND2X1_11 [i_add_term2_13_ i_add_term1_13_] _222_ d_lut_NAND2X1
ANAND3X1_3 [_220_ _222_ _221_] _223_ d_lut_NAND3X1
ANOR2X1_3 [i_add_term2_13_ i_add_term1_13_] _217_ d_lut_NOR2X1
AAND2X2_4 [i_add_term2_13_ i_add_term1_13_] _218_ d_lut_AND2X2
AOAI21X1_12 [_217_ _218_ _17__1_] _219_ d_lut_OAI21X1
ANAND2X1_12 [_219_ _223_] _15__1_ d_lut_NAND2X1
AOAI21X1_13 [_220_ _217_ _222_] _17__2_ d_lut_OAI21X1
AINVX1_9 [_17__2_] _227_ d_lut_INVX1
AOR2X2_4 [i_add_term2_14_ i_add_term1_14_] _228_ d_lut_OR2X2
ANAND2X1_13 [i_add_term2_14_ i_add_term1_14_] _229_ d_lut_NAND2X1
ANAND3X1_4 [_227_ _229_ _228_] _230_ d_lut_NAND3X1
ANOR2X1_4 [i_add_term2_14_ i_add_term1_14_] _224_ d_lut_NOR2X1
AAND2X2_5 [i_add_term2_14_ i_add_term1_14_] _225_ d_lut_AND2X2
AOAI21X1_14 [_224_ _225_ _17__2_] _226_ d_lut_OAI21X1
ANAND2X1_14 [_226_ _230_] _15__2_ d_lut_NAND2X1
AOAI21X1_15 [_227_ _224_ _229_] _17__3_ d_lut_OAI21X1
AINVX1_10 [vdd] _234_ d_lut_INVX1
AOR2X2_5 [i_add_term2_12_ i_add_term1_12_] _235_ d_lut_OR2X2
ANAND2X1_15 [i_add_term2_12_ i_add_term1_12_] _236_ d_lut_NAND2X1
ANAND3X1_5 [_234_ _236_ _235_] _237_ d_lut_NAND3X1
ANOR2X1_5 [i_add_term2_12_ i_add_term1_12_] _231_ d_lut_NOR2X1
AAND2X2_6 [i_add_term2_12_ i_add_term1_12_] _232_ d_lut_AND2X2
AOAI21X1_16 [_231_ _232_ vdd] _233_ d_lut_OAI21X1
ANAND2X1_16 [_233_ _237_] _16__0_ d_lut_NAND2X1
AOAI21X1_17 [_234_ _231_ _236_] _18__1_ d_lut_OAI21X1
AINVX1_11 [_18__3_] _241_ d_lut_INVX1
AOR2X2_6 [i_add_term2_15_ i_add_term1_15_] _242_ d_lut_OR2X2
ANAND2X1_17 [i_add_term2_15_ i_add_term1_15_] _243_ d_lut_NAND2X1
ANAND3X1_6 [_241_ _243_ _242_] _244_ d_lut_NAND3X1
ANOR2X1_6 [i_add_term2_15_ i_add_term1_15_] _238_ d_lut_NOR2X1
AAND2X2_7 [i_add_term2_15_ i_add_term1_15_] _239_ d_lut_AND2X2
AOAI21X1_18 [_238_ _239_ _18__3_] _240_ d_lut_OAI21X1
ANAND2X1_18 [_240_ _244_] _16__3_ d_lut_NAND2X1
AOAI21X1_19 [_241_ _238_ _243_] _14_ d_lut_OAI21X1
AINVX1_12 [_18__1_] _248_ d_lut_INVX1
AOR2X2_7 [i_add_term2_13_ i_add_term1_13_] _249_ d_lut_OR2X2
ANAND2X1_19 [i_add_term2_13_ i_add_term1_13_] _250_ d_lut_NAND2X1
ANAND3X1_7 [_248_ _250_ _249_] _251_ d_lut_NAND3X1
ANOR2X1_7 [i_add_term2_13_ i_add_term1_13_] _245_ d_lut_NOR2X1
AAND2X2_8 [i_add_term2_13_ i_add_term1_13_] _246_ d_lut_AND2X2
AOAI21X1_20 [_245_ _246_ _18__1_] _247_ d_lut_OAI21X1
ANAND2X1_20 [_247_ _251_] _16__1_ d_lut_NAND2X1
AOAI21X1_21 [_248_ _245_ _250_] _18__2_ d_lut_OAI21X1
AINVX1_13 [_18__2_] _255_ d_lut_INVX1
AOR2X2_8 [i_add_term2_14_ i_add_term1_14_] _256_ d_lut_OR2X2
ANAND2X1_21 [i_add_term2_14_ i_add_term1_14_] _257_ d_lut_NAND2X1
ANAND3X1_8 [_255_ _257_ _256_] _258_ d_lut_NAND3X1
ANOR2X1_8 [i_add_term2_14_ i_add_term1_14_] _252_ d_lut_NOR2X1
AAND2X2_9 [i_add_term2_14_ i_add_term1_14_] _253_ d_lut_AND2X2
AOAI21X1_22 [_252_ _253_ _18__2_] _254_ d_lut_OAI21X1
ANAND2X1_22 [_254_ _258_] _16__2_ d_lut_NAND2X1
AOAI21X1_23 [_255_ _252_ _257_] _18__3_ d_lut_OAI21X1
AINVX1_14 [_19_] _259_ d_lut_INVX1
ANAND2X1_23 [_20_ w_cout_3_] _260_ d_lut_NAND2X1
AOAI21X1_24 [w_cout_3_ _259_ _260_] w_cout_4_ d_lut_OAI21X1
AINVX1_15 [_21__0_] _261_ d_lut_INVX1
ANAND2X1_24 [_22__0_ w_cout_3_] _262_ d_lut_NAND2X1
AOAI21X1_25 [w_cout_3_ _261_ _262_] _0__16_ d_lut_OAI21X1
AINVX1_16 [_21__1_] _263_ d_lut_INVX1
ANAND2X1_25 [w_cout_3_ _22__1_] _264_ d_lut_NAND2X1
AOAI21X1_26 [w_cout_3_ _263_ _264_] _0__17_ d_lut_OAI21X1
AINVX1_17 [_21__2_] _265_ d_lut_INVX1
ANAND2X1_26 [w_cout_3_ _22__2_] _266_ d_lut_NAND2X1
AOAI21X1_27 [w_cout_3_ _265_ _266_] _0__18_ d_lut_OAI21X1
AINVX1_18 [_21__3_] _267_ d_lut_INVX1
ANAND2X1_27 [w_cout_3_ _22__3_] _268_ d_lut_NAND2X1
AOAI21X1_28 [w_cout_3_ _267_ _268_] _0__19_ d_lut_OAI21X1
AINVX1_19 [gnd] _272_ d_lut_INVX1
AOR2X2_9 [i_add_term2_16_ i_add_term1_16_] _273_ d_lut_OR2X2
ANAND2X1_28 [i_add_term2_16_ i_add_term1_16_] _274_ d_lut_NAND2X1
ANAND3X1_9 [_272_ _274_ _273_] _275_ d_lut_NAND3X1
ANOR2X1_9 [i_add_term2_16_ i_add_term1_16_] _269_ d_lut_NOR2X1
AAND2X2_10 [i_add_term2_16_ i_add_term1_16_] _270_ d_lut_AND2X2
AOAI21X1_29 [_269_ _270_ gnd] _271_ d_lut_OAI21X1
ANAND2X1_29 [_271_ _275_] _21__0_ d_lut_NAND2X1
AOAI21X1_30 [_272_ _269_ _274_] _23__1_ d_lut_OAI21X1
AINVX1_20 [_23__3_] _279_ d_lut_INVX1
AOR2X2_10 [i_add_term2_19_ i_add_term1_19_] _280_ d_lut_OR2X2
ANAND2X1_30 [i_add_term2_19_ i_add_term1_19_] _281_ d_lut_NAND2X1
ANAND3X1_10 [_279_ _281_ _280_] _282_ d_lut_NAND3X1
ANOR2X1_10 [i_add_term2_19_ i_add_term1_19_] _276_ d_lut_NOR2X1
AAND2X2_11 [i_add_term2_19_ i_add_term1_19_] _277_ d_lut_AND2X2
AOAI21X1_31 [_276_ _277_ _23__3_] _278_ d_lut_OAI21X1
ANAND2X1_31 [_278_ _282_] _21__3_ d_lut_NAND2X1
AOAI21X1_32 [_279_ _276_ _281_] _19_ d_lut_OAI21X1
AINVX1_21 [_23__1_] _286_ d_lut_INVX1
AOR2X2_11 [i_add_term2_17_ i_add_term1_17_] _287_ d_lut_OR2X2
ANAND2X1_32 [i_add_term2_17_ i_add_term1_17_] _288_ d_lut_NAND2X1
ANAND3X1_11 [_286_ _288_ _287_] _289_ d_lut_NAND3X1
ANOR2X1_11 [i_add_term2_17_ i_add_term1_17_] _283_ d_lut_NOR2X1
AAND2X2_12 [i_add_term2_17_ i_add_term1_17_] _284_ d_lut_AND2X2
AOAI21X1_33 [_283_ _284_ _23__1_] _285_ d_lut_OAI21X1
ANAND2X1_33 [_285_ _289_] _21__1_ d_lut_NAND2X1
AOAI21X1_34 [_286_ _283_ _288_] _23__2_ d_lut_OAI21X1
AINVX1_22 [_23__2_] _293_ d_lut_INVX1
AOR2X2_12 [i_add_term2_18_ i_add_term1_18_] _294_ d_lut_OR2X2
ANAND2X1_34 [i_add_term2_18_ i_add_term1_18_] _295_ d_lut_NAND2X1
ANAND3X1_12 [_293_ _295_ _294_] _296_ d_lut_NAND3X1
ANOR2X1_12 [i_add_term2_18_ i_add_term1_18_] _290_ d_lut_NOR2X1
AAND2X2_13 [i_add_term2_18_ i_add_term1_18_] _291_ d_lut_AND2X2
AOAI21X1_35 [_290_ _291_ _23__2_] _292_ d_lut_OAI21X1
ANAND2X1_35 [_292_ _296_] _21__2_ d_lut_NAND2X1
AOAI21X1_36 [_293_ _290_ _295_] _23__3_ d_lut_OAI21X1
AINVX1_23 [vdd] _300_ d_lut_INVX1
AOR2X2_13 [i_add_term2_16_ i_add_term1_16_] _301_ d_lut_OR2X2
ANAND2X1_36 [i_add_term2_16_ i_add_term1_16_] _302_ d_lut_NAND2X1
ANAND3X1_13 [_300_ _302_ _301_] _303_ d_lut_NAND3X1
ANOR2X1_13 [i_add_term2_16_ i_add_term1_16_] _297_ d_lut_NOR2X1
AAND2X2_14 [i_add_term2_16_ i_add_term1_16_] _298_ d_lut_AND2X2
AOAI21X1_37 [_297_ _298_ vdd] _299_ d_lut_OAI21X1
ANAND2X1_37 [_299_ _303_] _22__0_ d_lut_NAND2X1
AOAI21X1_38 [_300_ _297_ _302_] _24__1_ d_lut_OAI21X1
AINVX1_24 [_24__3_] _307_ d_lut_INVX1
AOR2X2_14 [i_add_term2_19_ i_add_term1_19_] _308_ d_lut_OR2X2
ANAND2X1_38 [i_add_term2_19_ i_add_term1_19_] _309_ d_lut_NAND2X1
ANAND3X1_14 [_307_ _309_ _308_] _310_ d_lut_NAND3X1
ANOR2X1_14 [i_add_term2_19_ i_add_term1_19_] _304_ d_lut_NOR2X1
AAND2X2_15 [i_add_term2_19_ i_add_term1_19_] _305_ d_lut_AND2X2
AOAI21X1_39 [_304_ _305_ _24__3_] _306_ d_lut_OAI21X1
ANAND2X1_39 [_306_ _310_] _22__3_ d_lut_NAND2X1
AOAI21X1_40 [_307_ _304_ _309_] _20_ d_lut_OAI21X1
AINVX1_25 [_24__1_] _314_ d_lut_INVX1
AOR2X2_15 [i_add_term2_17_ i_add_term1_17_] _315_ d_lut_OR2X2
ANAND2X1_40 [i_add_term2_17_ i_add_term1_17_] _316_ d_lut_NAND2X1
ANAND3X1_15 [_314_ _316_ _315_] _317_ d_lut_NAND3X1
ANOR2X1_15 [i_add_term2_17_ i_add_term1_17_] _311_ d_lut_NOR2X1
AAND2X2_16 [i_add_term2_17_ i_add_term1_17_] _312_ d_lut_AND2X2
AOAI21X1_41 [_311_ _312_ _24__1_] _313_ d_lut_OAI21X1
ANAND2X1_41 [_313_ _317_] _22__1_ d_lut_NAND2X1
AOAI21X1_42 [_314_ _311_ _316_] _24__2_ d_lut_OAI21X1
AINVX1_26 [_24__2_] _321_ d_lut_INVX1
AOR2X2_16 [i_add_term2_18_ i_add_term1_18_] _322_ d_lut_OR2X2
ANAND2X1_42 [i_add_term2_18_ i_add_term1_18_] _323_ d_lut_NAND2X1
ANAND3X1_16 [_321_ _323_ _322_] _324_ d_lut_NAND3X1
ANOR2X1_16 [i_add_term2_18_ i_add_term1_18_] _318_ d_lut_NOR2X1
AAND2X2_17 [i_add_term2_18_ i_add_term1_18_] _319_ d_lut_AND2X2
AOAI21X1_43 [_318_ _319_ _24__2_] _320_ d_lut_OAI21X1
ANAND2X1_43 [_320_ _324_] _22__2_ d_lut_NAND2X1
AOAI21X1_44 [_321_ _318_ _323_] _24__3_ d_lut_OAI21X1
AINVX1_27 [_25_] _325_ d_lut_INVX1
ANAND2X1_44 [_26_ w_cout_4_] _326_ d_lut_NAND2X1
AOAI21X1_45 [w_cout_4_ _325_ _326_] w_cout_5_ d_lut_OAI21X1
AINVX1_28 [_27__0_] _327_ d_lut_INVX1
ANAND2X1_45 [_28__0_ w_cout_4_] _328_ d_lut_NAND2X1
AOAI21X1_46 [w_cout_4_ _327_ _328_] _0__20_ d_lut_OAI21X1
AINVX1_29 [_27__1_] _329_ d_lut_INVX1
ANAND2X1_46 [w_cout_4_ _28__1_] _330_ d_lut_NAND2X1
AOAI21X1_47 [w_cout_4_ _329_ _330_] _0__21_ d_lut_OAI21X1
AINVX1_30 [_27__2_] _331_ d_lut_INVX1
ANAND2X1_47 [w_cout_4_ _28__2_] _332_ d_lut_NAND2X1
AOAI21X1_48 [w_cout_4_ _331_ _332_] _0__22_ d_lut_OAI21X1
AINVX1_31 [_27__3_] _333_ d_lut_INVX1
ANAND2X1_48 [w_cout_4_ _28__3_] _334_ d_lut_NAND2X1
AOAI21X1_49 [w_cout_4_ _333_ _334_] _0__23_ d_lut_OAI21X1
AINVX1_32 [gnd] _338_ d_lut_INVX1
AOR2X2_17 [i_add_term2_20_ i_add_term1_20_] _339_ d_lut_OR2X2
ANAND2X1_49 [i_add_term2_20_ i_add_term1_20_] _340_ d_lut_NAND2X1
ANAND3X1_17 [_338_ _340_ _339_] _341_ d_lut_NAND3X1
ANOR2X1_17 [i_add_term2_20_ i_add_term1_20_] _335_ d_lut_NOR2X1
AAND2X2_18 [i_add_term2_20_ i_add_term1_20_] _336_ d_lut_AND2X2
AOAI21X1_50 [_335_ _336_ gnd] _337_ d_lut_OAI21X1
ANAND2X1_50 [_337_ _341_] _27__0_ d_lut_NAND2X1
AOAI21X1_51 [_338_ _335_ _340_] _29__1_ d_lut_OAI21X1
AINVX1_33 [_29__3_] _345_ d_lut_INVX1
AOR2X2_18 [i_add_term2_23_ i_add_term1_23_] _346_ d_lut_OR2X2
ANAND2X1_51 [i_add_term2_23_ i_add_term1_23_] _347_ d_lut_NAND2X1
ANAND3X1_18 [_345_ _347_ _346_] _348_ d_lut_NAND3X1
ANOR2X1_18 [i_add_term2_23_ i_add_term1_23_] _342_ d_lut_NOR2X1
AAND2X2_19 [i_add_term2_23_ i_add_term1_23_] _343_ d_lut_AND2X2
AOAI21X1_52 [_342_ _343_ _29__3_] _344_ d_lut_OAI21X1
ANAND2X1_52 [_344_ _348_] _27__3_ d_lut_NAND2X1
AOAI21X1_53 [_345_ _342_ _347_] _25_ d_lut_OAI21X1
AINVX1_34 [_29__1_] _352_ d_lut_INVX1
AOR2X2_19 [i_add_term2_21_ i_add_term1_21_] _353_ d_lut_OR2X2
ANAND2X1_53 [i_add_term2_21_ i_add_term1_21_] _354_ d_lut_NAND2X1
ANAND3X1_19 [_352_ _354_ _353_] _355_ d_lut_NAND3X1
ANOR2X1_19 [i_add_term2_21_ i_add_term1_21_] _349_ d_lut_NOR2X1
AAND2X2_20 [i_add_term2_21_ i_add_term1_21_] _350_ d_lut_AND2X2
AOAI21X1_54 [_349_ _350_ _29__1_] _351_ d_lut_OAI21X1
ANAND2X1_54 [_351_ _355_] _27__1_ d_lut_NAND2X1
AOAI21X1_55 [_352_ _349_ _354_] _29__2_ d_lut_OAI21X1
AINVX1_35 [_29__2_] _359_ d_lut_INVX1
AOR2X2_20 [i_add_term2_22_ i_add_term1_22_] _360_ d_lut_OR2X2
ANAND2X1_55 [i_add_term2_22_ i_add_term1_22_] _361_ d_lut_NAND2X1
ANAND3X1_20 [_359_ _361_ _360_] _362_ d_lut_NAND3X1
ANOR2X1_20 [i_add_term2_22_ i_add_term1_22_] _356_ d_lut_NOR2X1
AAND2X2_21 [i_add_term2_22_ i_add_term1_22_] _357_ d_lut_AND2X2
AOAI21X1_56 [_356_ _357_ _29__2_] _358_ d_lut_OAI21X1
ANAND2X1_56 [_358_ _362_] _27__2_ d_lut_NAND2X1
AOAI21X1_57 [_359_ _356_ _361_] _29__3_ d_lut_OAI21X1
AINVX1_36 [vdd] _366_ d_lut_INVX1
AOR2X2_21 [i_add_term2_20_ i_add_term1_20_] _367_ d_lut_OR2X2
ANAND2X1_57 [i_add_term2_20_ i_add_term1_20_] _368_ d_lut_NAND2X1
ANAND3X1_21 [_366_ _368_ _367_] _369_ d_lut_NAND3X1
ANOR2X1_21 [i_add_term2_20_ i_add_term1_20_] _363_ d_lut_NOR2X1
AAND2X2_22 [i_add_term2_20_ i_add_term1_20_] _364_ d_lut_AND2X2
AOAI21X1_58 [_363_ _364_ vdd] _365_ d_lut_OAI21X1
ANAND2X1_58 [_365_ _369_] _28__0_ d_lut_NAND2X1
AOAI21X1_59 [_366_ _363_ _368_] _30__1_ d_lut_OAI21X1
AINVX1_37 [_30__3_] _373_ d_lut_INVX1
AOR2X2_22 [i_add_term2_23_ i_add_term1_23_] _374_ d_lut_OR2X2
ANAND2X1_59 [i_add_term2_23_ i_add_term1_23_] _375_ d_lut_NAND2X1
ANAND3X1_22 [_373_ _375_ _374_] _376_ d_lut_NAND3X1
ANOR2X1_22 [i_add_term2_23_ i_add_term1_23_] _370_ d_lut_NOR2X1
AAND2X2_23 [i_add_term2_23_ i_add_term1_23_] _371_ d_lut_AND2X2
AOAI21X1_60 [_370_ _371_ _30__3_] _372_ d_lut_OAI21X1
ANAND2X1_60 [_372_ _376_] _28__3_ d_lut_NAND2X1
AOAI21X1_61 [_373_ _370_ _375_] _26_ d_lut_OAI21X1
AINVX1_38 [_30__1_] _380_ d_lut_INVX1
AOR2X2_23 [i_add_term2_21_ i_add_term1_21_] _381_ d_lut_OR2X2
ANAND2X1_61 [i_add_term2_21_ i_add_term1_21_] _382_ d_lut_NAND2X1
ANAND3X1_23 [_380_ _382_ _381_] _383_ d_lut_NAND3X1
ANOR2X1_23 [i_add_term2_21_ i_add_term1_21_] _377_ d_lut_NOR2X1
AAND2X2_24 [i_add_term2_21_ i_add_term1_21_] _378_ d_lut_AND2X2
AOAI21X1_62 [_377_ _378_ _30__1_] _379_ d_lut_OAI21X1
ANAND2X1_62 [_379_ _383_] _28__1_ d_lut_NAND2X1
AOAI21X1_63 [_380_ _377_ _382_] _30__2_ d_lut_OAI21X1
AINVX1_39 [_30__2_] _387_ d_lut_INVX1
AOR2X2_24 [i_add_term2_22_ i_add_term1_22_] _388_ d_lut_OR2X2
ANAND2X1_63 [i_add_term2_22_ i_add_term1_22_] _389_ d_lut_NAND2X1
ANAND3X1_24 [_387_ _389_ _388_] _390_ d_lut_NAND3X1
ANOR2X1_24 [i_add_term2_22_ i_add_term1_22_] _384_ d_lut_NOR2X1
AAND2X2_25 [i_add_term2_22_ i_add_term1_22_] _385_ d_lut_AND2X2
AOAI21X1_64 [_384_ _385_ _30__2_] _386_ d_lut_OAI21X1
ANAND2X1_64 [_386_ _390_] _28__2_ d_lut_NAND2X1
AOAI21X1_65 [_387_ _384_ _389_] _30__3_ d_lut_OAI21X1
AINVX1_40 [_31_] _391_ d_lut_INVX1
ANAND2X1_65 [_32_ w_cout_5_] _392_ d_lut_NAND2X1
AOAI21X1_66 [w_cout_5_ _391_ _392_] w_cout_6_ d_lut_OAI21X1
AINVX1_41 [_33__0_] _393_ d_lut_INVX1
ANAND2X1_66 [_34__0_ w_cout_5_] _394_ d_lut_NAND2X1
AOAI21X1_67 [w_cout_5_ _393_ _394_] _0__24_ d_lut_OAI21X1
AINVX1_42 [_33__1_] _395_ d_lut_INVX1
ANAND2X1_67 [w_cout_5_ _34__1_] _396_ d_lut_NAND2X1
AOAI21X1_68 [w_cout_5_ _395_ _396_] _0__25_ d_lut_OAI21X1
AINVX1_43 [_33__2_] _397_ d_lut_INVX1
ANAND2X1_68 [w_cout_5_ _34__2_] _398_ d_lut_NAND2X1
AOAI21X1_69 [w_cout_5_ _397_ _398_] _0__26_ d_lut_OAI21X1
AINVX1_44 [_33__3_] _399_ d_lut_INVX1
ANAND2X1_69 [w_cout_5_ _34__3_] _400_ d_lut_NAND2X1
AOAI21X1_70 [w_cout_5_ _399_ _400_] _0__27_ d_lut_OAI21X1
AINVX1_45 [gnd] _404_ d_lut_INVX1
AOR2X2_25 [i_add_term2_24_ i_add_term1_24_] _405_ d_lut_OR2X2
ANAND2X1_70 [i_add_term2_24_ i_add_term1_24_] _406_ d_lut_NAND2X1
ANAND3X1_25 [_404_ _406_ _405_] _407_ d_lut_NAND3X1
ANOR2X1_25 [i_add_term2_24_ i_add_term1_24_] _401_ d_lut_NOR2X1
AAND2X2_26 [i_add_term2_24_ i_add_term1_24_] _402_ d_lut_AND2X2
AOAI21X1_71 [_401_ _402_ gnd] _403_ d_lut_OAI21X1
ANAND2X1_71 [_403_ _407_] _33__0_ d_lut_NAND2X1
AOAI21X1_72 [_404_ _401_ _406_] _35__1_ d_lut_OAI21X1
AINVX1_46 [_35__3_] _411_ d_lut_INVX1
AOR2X2_26 [i_add_term2_27_ i_add_term1_27_] _412_ d_lut_OR2X2
ANAND2X1_72 [i_add_term2_27_ i_add_term1_27_] _413_ d_lut_NAND2X1
ANAND3X1_26 [_411_ _413_ _412_] _414_ d_lut_NAND3X1
ANOR2X1_26 [i_add_term2_27_ i_add_term1_27_] _408_ d_lut_NOR2X1
AAND2X2_27 [i_add_term2_27_ i_add_term1_27_] _409_ d_lut_AND2X2
AOAI21X1_73 [_408_ _409_ _35__3_] _410_ d_lut_OAI21X1
ANAND2X1_73 [_410_ _414_] _33__3_ d_lut_NAND2X1
AOAI21X1_74 [_411_ _408_ _413_] _31_ d_lut_OAI21X1
AINVX1_47 [_35__1_] _418_ d_lut_INVX1
AOR2X2_27 [i_add_term2_25_ i_add_term1_25_] _419_ d_lut_OR2X2
ANAND2X1_74 [i_add_term2_25_ i_add_term1_25_] _420_ d_lut_NAND2X1
ANAND3X1_27 [_418_ _420_ _419_] _421_ d_lut_NAND3X1
ANOR2X1_27 [i_add_term2_25_ i_add_term1_25_] _415_ d_lut_NOR2X1
AAND2X2_28 [i_add_term2_25_ i_add_term1_25_] _416_ d_lut_AND2X2
AOAI21X1_75 [_415_ _416_ _35__1_] _417_ d_lut_OAI21X1
ANAND2X1_75 [_417_ _421_] _33__1_ d_lut_NAND2X1
AOAI21X1_76 [_418_ _415_ _420_] _35__2_ d_lut_OAI21X1
AINVX1_48 [_35__2_] _425_ d_lut_INVX1
AOR2X2_28 [i_add_term2_26_ i_add_term1_26_] _426_ d_lut_OR2X2
ANAND2X1_76 [i_add_term2_26_ i_add_term1_26_] _427_ d_lut_NAND2X1
ANAND3X1_28 [_425_ _427_ _426_] _428_ d_lut_NAND3X1
ANOR2X1_28 [i_add_term2_26_ i_add_term1_26_] _422_ d_lut_NOR2X1
AAND2X2_29 [i_add_term2_26_ i_add_term1_26_] _423_ d_lut_AND2X2
AOAI21X1_77 [_422_ _423_ _35__2_] _424_ d_lut_OAI21X1
ANAND2X1_77 [_424_ _428_] _33__2_ d_lut_NAND2X1
AOAI21X1_78 [_425_ _422_ _427_] _35__3_ d_lut_OAI21X1
AINVX1_49 [vdd] _432_ d_lut_INVX1
AOR2X2_29 [i_add_term2_24_ i_add_term1_24_] _433_ d_lut_OR2X2
ANAND2X1_78 [i_add_term2_24_ i_add_term1_24_] _434_ d_lut_NAND2X1
ANAND3X1_29 [_432_ _434_ _433_] _435_ d_lut_NAND3X1
ANOR2X1_29 [i_add_term2_24_ i_add_term1_24_] _429_ d_lut_NOR2X1
AAND2X2_30 [i_add_term2_24_ i_add_term1_24_] _430_ d_lut_AND2X2
AOAI21X1_79 [_429_ _430_ vdd] _431_ d_lut_OAI21X1
ANAND2X1_79 [_431_ _435_] _34__0_ d_lut_NAND2X1
AOAI21X1_80 [_432_ _429_ _434_] _36__1_ d_lut_OAI21X1
AINVX1_50 [_36__3_] _439_ d_lut_INVX1
AOR2X2_30 [i_add_term2_27_ i_add_term1_27_] _440_ d_lut_OR2X2
ANAND2X1_80 [i_add_term2_27_ i_add_term1_27_] _441_ d_lut_NAND2X1
ANAND3X1_30 [_439_ _441_ _440_] _442_ d_lut_NAND3X1
ANOR2X1_30 [i_add_term2_27_ i_add_term1_27_] _436_ d_lut_NOR2X1
AAND2X2_31 [i_add_term2_27_ i_add_term1_27_] _437_ d_lut_AND2X2
AOAI21X1_81 [_436_ _437_ _36__3_] _438_ d_lut_OAI21X1
ANAND2X1_81 [_438_ _442_] _34__3_ d_lut_NAND2X1
AOAI21X1_82 [_439_ _436_ _441_] _32_ d_lut_OAI21X1
AINVX1_51 [_36__1_] _446_ d_lut_INVX1
AOR2X2_31 [i_add_term2_25_ i_add_term1_25_] _447_ d_lut_OR2X2
ANAND2X1_82 [i_add_term2_25_ i_add_term1_25_] _448_ d_lut_NAND2X1
ANAND3X1_31 [_446_ _448_ _447_] _449_ d_lut_NAND3X1
ANOR2X1_31 [i_add_term2_25_ i_add_term1_25_] _443_ d_lut_NOR2X1
AAND2X2_32 [i_add_term2_25_ i_add_term1_25_] _444_ d_lut_AND2X2
AOAI21X1_83 [_443_ _444_ _36__1_] _445_ d_lut_OAI21X1
ANAND2X1_83 [_445_ _449_] _34__1_ d_lut_NAND2X1
AOAI21X1_84 [_446_ _443_ _448_] _36__2_ d_lut_OAI21X1
AINVX1_52 [_36__2_] _453_ d_lut_INVX1
AOR2X2_32 [i_add_term2_26_ i_add_term1_26_] _454_ d_lut_OR2X2
ANAND2X1_84 [i_add_term2_26_ i_add_term1_26_] _455_ d_lut_NAND2X1
ANAND3X1_32 [_453_ _455_ _454_] _456_ d_lut_NAND3X1
ANOR2X1_32 [i_add_term2_26_ i_add_term1_26_] _450_ d_lut_NOR2X1
AAND2X2_33 [i_add_term2_26_ i_add_term1_26_] _451_ d_lut_AND2X2
AOAI21X1_85 [_450_ _451_ _36__2_] _452_ d_lut_OAI21X1
ANAND2X1_85 [_452_ _456_] _34__2_ d_lut_NAND2X1
AOAI21X1_86 [_453_ _450_ _455_] _36__3_ d_lut_OAI21X1
AINVX1_53 [_37_] _457_ d_lut_INVX1
ANAND2X1_86 [_38_ w_cout_6_] _458_ d_lut_NAND2X1
AOAI21X1_87 [w_cout_6_ _457_ _458_] w_cout_7_ d_lut_OAI21X1
AINVX1_54 [_39__0_] _459_ d_lut_INVX1
ANAND2X1_87 [_40__0_ w_cout_6_] _460_ d_lut_NAND2X1
AOAI21X1_88 [w_cout_6_ _459_ _460_] _0__28_ d_lut_OAI21X1
AINVX1_55 [_39__1_] _461_ d_lut_INVX1
ANAND2X1_88 [w_cout_6_ _40__1_] _462_ d_lut_NAND2X1
AOAI21X1_89 [w_cout_6_ _461_ _462_] _0__29_ d_lut_OAI21X1
AINVX1_56 [_39__2_] _463_ d_lut_INVX1
ANAND2X1_89 [w_cout_6_ _40__2_] _464_ d_lut_NAND2X1
AOAI21X1_90 [w_cout_6_ _463_ _464_] _0__30_ d_lut_OAI21X1
AINVX1_57 [_39__3_] _465_ d_lut_INVX1
ANAND2X1_90 [w_cout_6_ _40__3_] _466_ d_lut_NAND2X1
AOAI21X1_91 [w_cout_6_ _465_ _466_] _0__31_ d_lut_OAI21X1
AINVX1_58 [gnd] _470_ d_lut_INVX1
AOR2X2_33 [i_add_term2_28_ i_add_term1_28_] _471_ d_lut_OR2X2
ANAND2X1_91 [i_add_term2_28_ i_add_term1_28_] _472_ d_lut_NAND2X1
ANAND3X1_33 [_470_ _472_ _471_] _473_ d_lut_NAND3X1
ANOR2X1_33 [i_add_term2_28_ i_add_term1_28_] _467_ d_lut_NOR2X1
AAND2X2_34 [i_add_term2_28_ i_add_term1_28_] _468_ d_lut_AND2X2
AOAI21X1_92 [_467_ _468_ gnd] _469_ d_lut_OAI21X1
ANAND2X1_92 [_469_ _473_] _39__0_ d_lut_NAND2X1
AOAI21X1_93 [_470_ _467_ _472_] _41__1_ d_lut_OAI21X1
AINVX1_59 [_41__3_] _477_ d_lut_INVX1
AOR2X2_34 [i_add_term2_31_ i_add_term1_31_] _478_ d_lut_OR2X2
ANAND2X1_93 [i_add_term2_31_ i_add_term1_31_] _479_ d_lut_NAND2X1
ANAND3X1_34 [_477_ _479_ _478_] _480_ d_lut_NAND3X1
ANOR2X1_34 [i_add_term2_31_ i_add_term1_31_] _474_ d_lut_NOR2X1
AAND2X2_35 [i_add_term2_31_ i_add_term1_31_] _475_ d_lut_AND2X2
AOAI21X1_94 [_474_ _475_ _41__3_] _476_ d_lut_OAI21X1
ANAND2X1_94 [_476_ _480_] _39__3_ d_lut_NAND2X1
AOAI21X1_95 [_477_ _474_ _479_] _37_ d_lut_OAI21X1
AINVX1_60 [_41__1_] _484_ d_lut_INVX1
AOR2X2_35 [i_add_term2_29_ i_add_term1_29_] _485_ d_lut_OR2X2
ANAND2X1_95 [i_add_term2_29_ i_add_term1_29_] _486_ d_lut_NAND2X1
ANAND3X1_35 [_484_ _486_ _485_] _487_ d_lut_NAND3X1
ANOR2X1_35 [i_add_term2_29_ i_add_term1_29_] _481_ d_lut_NOR2X1
AAND2X2_36 [i_add_term2_29_ i_add_term1_29_] _482_ d_lut_AND2X2
AOAI21X1_96 [_481_ _482_ _41__1_] _483_ d_lut_OAI21X1
ANAND2X1_96 [_483_ _487_] _39__1_ d_lut_NAND2X1
AOAI21X1_97 [_484_ _481_ _486_] _41__2_ d_lut_OAI21X1
AINVX1_61 [_41__2_] _491_ d_lut_INVX1
AOR2X2_36 [i_add_term2_30_ i_add_term1_30_] _492_ d_lut_OR2X2
ANAND2X1_97 [i_add_term2_30_ i_add_term1_30_] _493_ d_lut_NAND2X1
ANAND3X1_36 [_491_ _493_ _492_] _494_ d_lut_NAND3X1
ANOR2X1_36 [i_add_term2_30_ i_add_term1_30_] _488_ d_lut_NOR2X1
AAND2X2_37 [i_add_term2_30_ i_add_term1_30_] _489_ d_lut_AND2X2
AOAI21X1_98 [_488_ _489_ _41__2_] _490_ d_lut_OAI21X1
ANAND2X1_98 [_490_ _494_] _39__2_ d_lut_NAND2X1
AOAI21X1_99 [_491_ _488_ _493_] _41__3_ d_lut_OAI21X1
AINVX1_62 [vdd] _498_ d_lut_INVX1
AOR2X2_37 [i_add_term2_28_ i_add_term1_28_] _499_ d_lut_OR2X2
ANAND2X1_99 [i_add_term2_28_ i_add_term1_28_] _500_ d_lut_NAND2X1
ANAND3X1_37 [_498_ _500_ _499_] _501_ d_lut_NAND3X1
ANOR2X1_37 [i_add_term2_28_ i_add_term1_28_] _495_ d_lut_NOR2X1
AAND2X2_38 [i_add_term2_28_ i_add_term1_28_] _496_ d_lut_AND2X2
AOAI21X1_100 [_495_ _496_ vdd] _497_ d_lut_OAI21X1
ANAND2X1_100 [_497_ _501_] _40__0_ d_lut_NAND2X1
AOAI21X1_101 [_498_ _495_ _500_] _42__1_ d_lut_OAI21X1
AINVX1_63 [_42__3_] _505_ d_lut_INVX1
AOR2X2_38 [i_add_term2_31_ i_add_term1_31_] _506_ d_lut_OR2X2
ANAND2X1_101 [i_add_term2_31_ i_add_term1_31_] _507_ d_lut_NAND2X1
ANAND3X1_38 [_505_ _507_ _506_] _508_ d_lut_NAND3X1
ANOR2X1_38 [i_add_term2_31_ i_add_term1_31_] _502_ d_lut_NOR2X1
AAND2X2_39 [i_add_term2_31_ i_add_term1_31_] _503_ d_lut_AND2X2
AOAI21X1_102 [_502_ _503_ _42__3_] _504_ d_lut_OAI21X1
ANAND2X1_102 [_504_ _508_] _40__3_ d_lut_NAND2X1
AOAI21X1_103 [_505_ _502_ _507_] _38_ d_lut_OAI21X1
AINVX1_64 [_42__1_] _512_ d_lut_INVX1
AOR2X2_39 [i_add_term2_29_ i_add_term1_29_] _513_ d_lut_OR2X2
ANAND2X1_103 [i_add_term2_29_ i_add_term1_29_] _514_ d_lut_NAND2X1
ANAND3X1_39 [_512_ _514_ _513_] _515_ d_lut_NAND3X1
ANOR2X1_39 [i_add_term2_29_ i_add_term1_29_] _509_ d_lut_NOR2X1
AAND2X2_40 [i_add_term2_29_ i_add_term1_29_] _510_ d_lut_AND2X2
AOAI21X1_104 [_509_ _510_ _42__1_] _511_ d_lut_OAI21X1
ANAND2X1_104 [_511_ _515_] _40__1_ d_lut_NAND2X1
AOAI21X1_105 [_512_ _509_ _514_] _42__2_ d_lut_OAI21X1
AINVX1_65 [_42__2_] _519_ d_lut_INVX1
AOR2X2_40 [i_add_term2_30_ i_add_term1_30_] _520_ d_lut_OR2X2
ANAND2X1_105 [i_add_term2_30_ i_add_term1_30_] _521_ d_lut_NAND2X1
ANAND3X1_40 [_519_ _521_ _520_] _522_ d_lut_NAND3X1
ANOR2X1_40 [i_add_term2_30_ i_add_term1_30_] _516_ d_lut_NOR2X1
AAND2X2_41 [i_add_term2_30_ i_add_term1_30_] _517_ d_lut_AND2X2
AOAI21X1_106 [_516_ _517_ _42__2_] _518_ d_lut_OAI21X1
ANAND2X1_106 [_518_ _522_] _40__2_ d_lut_NAND2X1
AOAI21X1_107 [_519_ _516_ _521_] _42__3_ d_lut_OAI21X1
AINVX1_66 [_43_] _523_ d_lut_INVX1
ANAND2X1_107 [_44_ w_cout_7_] _524_ d_lut_NAND2X1
AOAI21X1_108 [w_cout_7_ _523_ _524_] w_cout_8_ d_lut_OAI21X1
AINVX1_67 [_45__0_] _525_ d_lut_INVX1
ANAND2X1_108 [_46__0_ w_cout_7_] _526_ d_lut_NAND2X1
AOAI21X1_109 [w_cout_7_ _525_ _526_] _0__32_ d_lut_OAI21X1
AINVX1_68 [_45__1_] _527_ d_lut_INVX1
ANAND2X1_109 [w_cout_7_ _46__1_] _528_ d_lut_NAND2X1
AOAI21X1_110 [w_cout_7_ _527_ _528_] _0__33_ d_lut_OAI21X1
AINVX1_69 [_45__2_] _529_ d_lut_INVX1
ANAND2X1_110 [w_cout_7_ _46__2_] _530_ d_lut_NAND2X1
AOAI21X1_111 [w_cout_7_ _529_ _530_] _0__34_ d_lut_OAI21X1
AINVX1_70 [_45__3_] _531_ d_lut_INVX1
ANAND2X1_111 [w_cout_7_ _46__3_] _532_ d_lut_NAND2X1
AOAI21X1_112 [w_cout_7_ _531_ _532_] _0__35_ d_lut_OAI21X1
AINVX1_71 [gnd] _536_ d_lut_INVX1
AOR2X2_41 [i_add_term2_32_ i_add_term1_32_] _537_ d_lut_OR2X2
ANAND2X1_112 [i_add_term2_32_ i_add_term1_32_] _538_ d_lut_NAND2X1
ANAND3X1_41 [_536_ _538_ _537_] _539_ d_lut_NAND3X1
ANOR2X1_41 [i_add_term2_32_ i_add_term1_32_] _533_ d_lut_NOR2X1
AAND2X2_42 [i_add_term2_32_ i_add_term1_32_] _534_ d_lut_AND2X2
AOAI21X1_113 [_533_ _534_ gnd] _535_ d_lut_OAI21X1
ANAND2X1_113 [_535_ _539_] _45__0_ d_lut_NAND2X1
AOAI21X1_114 [_536_ _533_ _538_] _47__1_ d_lut_OAI21X1
AINVX1_72 [_47__3_] _543_ d_lut_INVX1
AOR2X2_42 [i_add_term2_35_ i_add_term1_35_] _544_ d_lut_OR2X2
ANAND2X1_114 [i_add_term2_35_ i_add_term1_35_] _545_ d_lut_NAND2X1
ANAND3X1_42 [_543_ _545_ _544_] _546_ d_lut_NAND3X1
ANOR2X1_42 [i_add_term2_35_ i_add_term1_35_] _540_ d_lut_NOR2X1
AAND2X2_43 [i_add_term2_35_ i_add_term1_35_] _541_ d_lut_AND2X2
AOAI21X1_115 [_540_ _541_ _47__3_] _542_ d_lut_OAI21X1
ANAND2X1_115 [_542_ _546_] _45__3_ d_lut_NAND2X1
AOAI21X1_116 [_543_ _540_ _545_] _43_ d_lut_OAI21X1
AINVX1_73 [_47__1_] _550_ d_lut_INVX1
AOR2X2_43 [i_add_term2_33_ i_add_term1_33_] _551_ d_lut_OR2X2
ANAND2X1_116 [i_add_term2_33_ i_add_term1_33_] _552_ d_lut_NAND2X1
ANAND3X1_43 [_550_ _552_ _551_] _553_ d_lut_NAND3X1
ANOR2X1_43 [i_add_term2_33_ i_add_term1_33_] _547_ d_lut_NOR2X1
AAND2X2_44 [i_add_term2_33_ i_add_term1_33_] _548_ d_lut_AND2X2
AOAI21X1_117 [_547_ _548_ _47__1_] _549_ d_lut_OAI21X1
ANAND2X1_117 [_549_ _553_] _45__1_ d_lut_NAND2X1
AOAI21X1_118 [_550_ _547_ _552_] _47__2_ d_lut_OAI21X1
AINVX1_74 [_47__2_] _557_ d_lut_INVX1
AOR2X2_44 [i_add_term2_34_ i_add_term1_34_] _558_ d_lut_OR2X2
ANAND2X1_118 [i_add_term2_34_ i_add_term1_34_] _559_ d_lut_NAND2X1
ANAND3X1_44 [_557_ _559_ _558_] _560_ d_lut_NAND3X1
ANOR2X1_44 [i_add_term2_34_ i_add_term1_34_] _554_ d_lut_NOR2X1
AAND2X2_45 [i_add_term2_34_ i_add_term1_34_] _555_ d_lut_AND2X2
AOAI21X1_119 [_554_ _555_ _47__2_] _556_ d_lut_OAI21X1
ANAND2X1_119 [_556_ _560_] _45__2_ d_lut_NAND2X1
AOAI21X1_120 [_557_ _554_ _559_] _47__3_ d_lut_OAI21X1
AINVX1_75 [vdd] _564_ d_lut_INVX1
AOR2X2_45 [i_add_term2_32_ i_add_term1_32_] _565_ d_lut_OR2X2
ANAND2X1_120 [i_add_term2_32_ i_add_term1_32_] _566_ d_lut_NAND2X1
ANAND3X1_45 [_564_ _566_ _565_] _567_ d_lut_NAND3X1
ANOR2X1_45 [i_add_term2_32_ i_add_term1_32_] _561_ d_lut_NOR2X1
AAND2X2_46 [i_add_term2_32_ i_add_term1_32_] _562_ d_lut_AND2X2
AOAI21X1_121 [_561_ _562_ vdd] _563_ d_lut_OAI21X1
ANAND2X1_121 [_563_ _567_] _46__0_ d_lut_NAND2X1
AOAI21X1_122 [_564_ _561_ _566_] _48__1_ d_lut_OAI21X1
AINVX1_76 [_48__3_] _571_ d_lut_INVX1
AOR2X2_46 [i_add_term2_35_ i_add_term1_35_] _572_ d_lut_OR2X2
ANAND2X1_122 [i_add_term2_35_ i_add_term1_35_] _573_ d_lut_NAND2X1
ANAND3X1_46 [_571_ _573_ _572_] _574_ d_lut_NAND3X1
ANOR2X1_46 [i_add_term2_35_ i_add_term1_35_] _568_ d_lut_NOR2X1
AAND2X2_47 [i_add_term2_35_ i_add_term1_35_] _569_ d_lut_AND2X2
AOAI21X1_123 [_568_ _569_ _48__3_] _570_ d_lut_OAI21X1
ANAND2X1_123 [_570_ _574_] _46__3_ d_lut_NAND2X1
AOAI21X1_124 [_571_ _568_ _573_] _44_ d_lut_OAI21X1
AINVX1_77 [_48__1_] _578_ d_lut_INVX1
AOR2X2_47 [i_add_term2_33_ i_add_term1_33_] _579_ d_lut_OR2X2