*SPICE netlist created from BLIF module csa_64bit by blif2BSpice
.include /usr/local/share/qflow/tech/osu035/osu035_stdcells.sp
.subckt csa_64bit vdd gnd i_add_term1[0] i_add_term1[1] i_add_term1[2] i_add_term1[3] i_add_term1[4] i_add_term1[5] i_add_term1[6] i_add_term1[7] i_add_term1[8] i_add_term1[9] i_add_term1[10] i_add_term1[11] i_add_term1[12] i_add_term1[13] i_add_term1[14] i_add_term1[15] i_add_term1[16] i_add_term1[17] i_add_term1[18] i_add_term1[19] i_add_term1[20] i_add_term1[21] i_add_term1[22] i_add_term1[23] i_add_term1[24] i_add_term1[25] i_add_term1[26] i_add_term1[27] i_add_term1[28] i_add_term1[29] i_add_term1[30] i_add_term1[31] i_add_term1[32] i_add_term1[33] i_add_term1[34] i_add_term1[35] i_add_term1[36] i_add_term1[37] i_add_term1[38] i_add_term1[39] i_add_term1[40] i_add_term1[41] i_add_term1[42] i_add_term1[43] i_add_term1[44] i_add_term1[45] i_add_term1[46] i_add_term1[47] i_add_term1[48] i_add_term1[49] i_add_term1[50] i_add_term1[51] i_add_term1[52] i_add_term1[53] i_add_term1[54] i_add_term1[55] i_add_term1[56] i_add_term1[57] i_add_term1[58] i_add_term1[59] i_add_term1[60] i_add_term1[61] i_add_term1[62] i_add_term1[63] i_add_term2[0] i_add_term2[1] i_add_term2[2] i_add_term2[3] i_add_term2[4] i_add_term2[5] i_add_term2[6] i_add_term2[7] i_add_term2[8] i_add_term2[9] i_add_term2[10] i_add_term2[11] i_add_term2[12] i_add_term2[13] i_add_term2[14] i_add_term2[15] i_add_term2[16] i_add_term2[17] i_add_term2[18] i_add_term2[19] i_add_term2[20] i_add_term2[21] i_add_term2[22] i_add_term2[23] i_add_term2[24] i_add_term2[25] i_add_term2[26] i_add_term2[27] i_add_term2[28] i_add_term2[29] i_add_term2[30] i_add_term2[31] i_add_term2[32] i_add_term2[33] i_add_term2[34] i_add_term2[35] i_add_term2[36] i_add_term2[37] i_add_term2[38] i_add_term2[39] i_add_term2[40] i_add_term2[41] i_add_term2[42] i_add_term2[43] i_add_term2[44] i_add_term2[45] i_add_term2[46] i_add_term2[47] i_add_term2[48] i_add_term2[49] i_add_term2[50] i_add_term2[51] i_add_term2[52] i_add_term2[53] i_add_term2[54] i_add_term2[55] i_add_term2[56] i_add_term2[57] i_add_term2[58] i_add_term2[59] i_add_term2[60] i_add_term2[61] i_add_term2[62] i_add_term2[63] sum[0] sum[1] sum[2] sum[3] sum[4] sum[5] sum[6] sum[7] sum[8] sum[9] sum[10] sum[11] sum[12] sum[13] sum[14] sum[15] sum[16] sum[17] sum[18] sum[19] sum[20] sum[21] sum[22] sum[23] sum[24] sum[25] sum[26] sum[27] sum[28] sum[29] sum[30] sum[31] sum[32] sum[33] sum[34] sum[35] sum[36] sum[37] sum[38] sum[39] sum[40] sum[41] sum[42] sum[43] sum[44] sum[45] sum[46] sum[47] sum[48] sum[49] sum[50] sum[51] sum[52] sum[53] sum[54] sum[55] sum[56] sum[57] sum[58] sum[59] sum[60] sum[61] sum[62] sum[63] cout 
XBUFX2_1 vdd gnd w_cout[15] cout BUFX2
XBUFX2_2 vdd gnd rca_inst.fa0.o_sum sum[0] BUFX2
XBUFX2_3 vdd gnd rca_inst.fa[1].o_sum sum[1] BUFX2
XBUFX2_4 vdd gnd rca_inst.fa[2].o_sum sum[2] BUFX2
XBUFX2_5 vdd gnd rca_inst.fa3.o_sum sum[3] BUFX2
XBUFX2_6 vdd gnd _0_[4] sum[4] BUFX2
XBUFX2_7 vdd gnd _0_[5] sum[5] BUFX2
XBUFX2_8 vdd gnd _0_[6] sum[6] BUFX2
XBUFX2_9 vdd gnd _0_[7] sum[7] BUFX2
XBUFX2_10 vdd gnd _0_[8] sum[8] BUFX2
XBUFX2_11 vdd gnd _0_[9] sum[9] BUFX2
XBUFX2_12 vdd gnd _0_[10] sum[10] BUFX2
XBUFX2_13 vdd gnd _0_[11] sum[11] BUFX2
XBUFX2_14 vdd gnd _0_[12] sum[12] BUFX2
XBUFX2_15 vdd gnd _0_[13] sum[13] BUFX2
XBUFX2_16 vdd gnd _0_[14] sum[14] BUFX2
XBUFX2_17 vdd gnd _0_[15] sum[15] BUFX2
XBUFX2_18 vdd gnd _0_[16] sum[16] BUFX2
XBUFX2_19 vdd gnd _0_[17] sum[17] BUFX2
XBUFX2_20 vdd gnd _0_[18] sum[18] BUFX2
XBUFX2_21 vdd gnd _0_[19] sum[19] BUFX2
XBUFX2_22 vdd gnd _0_[20] sum[20] BUFX2
XBUFX2_23 vdd gnd _0_[21] sum[21] BUFX2
XBUFX2_24 vdd gnd _0_[22] sum[22] BUFX2
XBUFX2_25 vdd gnd _0_[23] sum[23] BUFX2
XBUFX2_26 vdd gnd _0_[24] sum[24] BUFX2
XBUFX2_27 vdd gnd _0_[25] sum[25] BUFX2
XBUFX2_28 vdd gnd _0_[26] sum[26] BUFX2
XBUFX2_29 vdd gnd _0_[27] sum[27] BUFX2
XBUFX2_30 vdd gnd _0_[28] sum[28] BUFX2
XBUFX2_31 vdd gnd _0_[29] sum[29] BUFX2
XBUFX2_32 vdd gnd _0_[30] sum[30] BUFX2
XBUFX2_33 vdd gnd _0_[31] sum[31] BUFX2
XBUFX2_34 vdd gnd _0_[32] sum[32] BUFX2
XBUFX2_35 vdd gnd _0_[33] sum[33] BUFX2
XBUFX2_36 vdd gnd _0_[34] sum[34] BUFX2
XBUFX2_37 vdd gnd _0_[35] sum[35] BUFX2
XBUFX2_38 vdd gnd _0_[36] sum[36] BUFX2
XBUFX2_39 vdd gnd _0_[37] sum[37] BUFX2
XBUFX2_40 vdd gnd _0_[38] sum[38] BUFX2
XBUFX2_41 vdd gnd _0_[39] sum[39] BUFX2
XBUFX2_42 vdd gnd _0_[40] sum[40] BUFX2
XBUFX2_43 vdd gnd _0_[41] sum[41] BUFX2
XBUFX2_44 vdd gnd _0_[42] sum[42] BUFX2
XBUFX2_45 vdd gnd _0_[43] sum[43] BUFX2
XBUFX2_46 vdd gnd _0_[44] sum[44] BUFX2
XBUFX2_47 vdd gnd _0_[45] sum[45] BUFX2
XBUFX2_48 vdd gnd _0_[46] sum[46] BUFX2
XBUFX2_49 vdd gnd _0_[47] sum[47] BUFX2
XBUFX2_50 vdd gnd _0_[48] sum[48] BUFX2
XBUFX2_51 vdd gnd _0_[49] sum[49] BUFX2
XBUFX2_52 vdd gnd _0_[50] sum[50] BUFX2
XBUFX2_53 vdd gnd _0_[51] sum[51] BUFX2
XBUFX2_54 vdd gnd _0_[52] sum[52] BUFX2
XBUFX2_55 vdd gnd _0_[53] sum[53] BUFX2
XBUFX2_56 vdd gnd _0_[54] sum[54] BUFX2
XBUFX2_57 vdd gnd _0_[55] sum[55] BUFX2
XBUFX2_58 vdd gnd _0_[56] sum[56] BUFX2
XBUFX2_59 vdd gnd _0_[57] sum[57] BUFX2
XBUFX2_60 vdd gnd _0_[58] sum[58] BUFX2
XBUFX2_61 vdd gnd _0_[59] sum[59] BUFX2
XBUFX2_62 vdd gnd _0_[60] sum[60] BUFX2
XBUFX2_63 vdd gnd _0_[61] sum[61] BUFX2
XBUFX2_64 vdd gnd _0_[62] sum[62] BUFX2
XBUFX2_65 vdd gnd _0_[63] sum[63] BUFX2
XINVX1_1 _1_ _91_ vdd gnd INVX1
XNAND2X1_1 vdd _92_ gnd _2_ rca_inst.cout NAND2X1
XOAI21X1_1 gnd vdd rca_inst.cout _91_ w_cout[1] _92_ OAI21X1
XINVX1_2 _3_[0] _93_ vdd gnd INVX1
XNAND2X1_2 vdd _94_ gnd _4_[0] rca_inst.cout NAND2X1
XOAI21X1_2 gnd vdd rca_inst.cout _93_ _0_[4] _94_ OAI21X1
XINVX1_3 _3_[1] _95_ vdd gnd INVX1
XNAND2X1_3 vdd _96_ gnd rca_inst.cout _4_[1] NAND2X1
XOAI21X1_3 gnd vdd rca_inst.cout _95_ _0_[5] _96_ OAI21X1
XINVX1_4 _3_[2] _97_ vdd gnd INVX1
XNAND2X1_4 vdd _98_ gnd rca_inst.cout _4_[2] NAND2X1
XOAI21X1_4 gnd vdd rca_inst.cout _97_ _0_[6] _98_ OAI21X1
XINVX1_5 _3_[3] _99_ vdd gnd INVX1
XNAND2X1_5 vdd _100_ gnd rca_inst.cout _4_[3] NAND2X1
XOAI21X1_5 gnd vdd rca_inst.cout _99_ _0_[7] _100_ OAI21X1
XINVX1_6 gnd _104_ vdd gnd INVX1
XOR2X2_1 _105_ i_add_term1[4] vdd gnd i_add_term2[4] OR2X2
XNAND2X1_6 vdd _106_ gnd i_add_term2[4] i_add_term1[4] NAND2X1
XNAND3X1_1 _106_ vdd gnd _104_ _105_ _107_ NAND3X1
XNOR2X1_1 vdd i_add_term1[4] gnd _101_ i_add_term2[4] NOR2X1
XAND2X2_1 vdd gnd i_add_term2[4] i_add_term1[4] _102_ AND2X2
XOAI21X1_6 gnd vdd _101_ _102_ _103_ gnd OAI21X1
XNAND2X1_7 vdd _3_[0] gnd _103_ _107_ NAND2X1
XOAI21X1_7 gnd vdd _104_ _101_ _5_[1] _106_ OAI21X1
XINVX1_7 _5_[3] _111_ vdd gnd INVX1
XOR2X2_2 _112_ i_add_term1[7] vdd gnd i_add_term2[7] OR2X2
XNAND2X1_8 vdd _113_ gnd i_add_term2[7] i_add_term1[7] NAND2X1
XNAND3X1_2 _113_ vdd gnd _111_ _112_ _114_ NAND3X1
XNOR2X1_2 vdd i_add_term1[7] gnd _108_ i_add_term2[7] NOR2X1
XAND2X2_2 vdd gnd i_add_term2[7] i_add_term1[7] _109_ AND2X2
XOAI21X1_8 gnd vdd _108_ _109_ _110_ _5_[3] OAI21X1
XNAND2X1_9 vdd _3_[3] gnd _110_ _114_ NAND2X1
XOAI21X1_9 gnd vdd _111_ _108_ _1_ _113_ OAI21X1
XINVX1_8 _5_[1] _118_ vdd gnd INVX1
XOR2X2_3 _119_ i_add_term1[5] vdd gnd i_add_term2[5] OR2X2
XNAND2X1_10 vdd _120_ gnd i_add_term2[5] i_add_term1[5] NAND2X1
XNAND3X1_3 _120_ vdd gnd _118_ _119_ _121_ NAND3X1
XNOR2X1_3 vdd i_add_term1[5] gnd _115_ i_add_term2[5] NOR2X1
XAND2X2_3 vdd gnd i_add_term2[5] i_add_term1[5] _116_ AND2X2
XOAI21X1_10 gnd vdd _115_ _116_ _117_ _5_[1] OAI21X1
XNAND2X1_11 vdd _3_[1] gnd _117_ _121_ NAND2X1
XOAI21X1_11 gnd vdd _118_ _115_ _5_[2] _120_ OAI21X1
XINVX1_9 _5_[2] _125_ vdd gnd INVX1
XOR2X2_4 _126_ i_add_term1[6] vdd gnd i_add_term2[6] OR2X2
XNAND2X1_12 vdd _127_ gnd i_add_term2[6] i_add_term1[6] NAND2X1
XNAND3X1_4 _127_ vdd gnd _125_ _126_ _128_ NAND3X1
XNOR2X1_4 vdd i_add_term1[6] gnd _122_ i_add_term2[6] NOR2X1
XAND2X2_4 vdd gnd i_add_term2[6] i_add_term1[6] _123_ AND2X2
XOAI21X1_12 gnd vdd _122_ _123_ _124_ _5_[2] OAI21X1
XNAND2X1_13 vdd _3_[2] gnd _124_ _128_ NAND2X1
XOAI21X1_13 gnd vdd _125_ _122_ _5_[3] _127_ OAI21X1
XINVX1_10 vdd _132_ vdd gnd INVX1
XOR2X2_5 _133_ i_add_term1[4] vdd gnd i_add_term2[4] OR2X2
XNAND2X1_14 vdd _134_ gnd i_add_term2[4] i_add_term1[4] NAND2X1
XNAND3X1_5 _134_ vdd gnd _132_ _133_ _135_ NAND3X1
XNOR2X1_5 vdd i_add_term1[4] gnd _129_ i_add_term2[4] NOR2X1
XAND2X2_5 vdd gnd i_add_term2[4] i_add_term1[4] _130_ AND2X2
XOAI21X1_14 gnd vdd _129_ _130_ _131_ vdd OAI21X1
XNAND2X1_15 vdd _4_[0] gnd _131_ _135_ NAND2X1
XOAI21X1_15 gnd vdd _132_ _129_ _6_[1] _134_ OAI21X1
XINVX1_11 _6_[3] _139_ vdd gnd INVX1
XOR2X2_6 _140_ i_add_term1[7] vdd gnd i_add_term2[7] OR2X2
XNAND2X1_16 vdd _141_ gnd i_add_term2[7] i_add_term1[7] NAND2X1
XNAND3X1_6 _141_ vdd gnd _139_ _140_ _142_ NAND3X1
XNOR2X1_6 vdd i_add_term1[7] gnd _136_ i_add_term2[7] NOR2X1
XAND2X2_6 vdd gnd i_add_term2[7] i_add_term1[7] _137_ AND2X2
XOAI21X1_16 gnd vdd _136_ _137_ _138_ _6_[3] OAI21X1
XNAND2X1_17 vdd _4_[3] gnd _138_ _142_ NAND2X1
XOAI21X1_17 gnd vdd _139_ _136_ _2_ _141_ OAI21X1
XINVX1_12 _6_[1] _146_ vdd gnd INVX1
XOR2X2_7 _147_ i_add_term1[5] vdd gnd i_add_term2[5] OR2X2
XNAND2X1_18 vdd _148_ gnd i_add_term2[5] i_add_term1[5] NAND2X1
XNAND3X1_7 _148_ vdd gnd _146_ _147_ _149_ NAND3X1
XNOR2X1_7 vdd i_add_term1[5] gnd _143_ i_add_term2[5] NOR2X1
XAND2X2_7 vdd gnd i_add_term2[5] i_add_term1[5] _144_ AND2X2
XOAI21X1_18 gnd vdd _143_ _144_ _145_ _6_[1] OAI21X1
XNAND2X1_19 vdd _4_[1] gnd _145_ _149_ NAND2X1
XOAI21X1_19 gnd vdd _146_ _143_ _6_[2] _148_ OAI21X1
XINVX1_13 _6_[2] _153_ vdd gnd INVX1
XOR2X2_8 _154_ i_add_term1[6] vdd gnd i_add_term2[6] OR2X2
XNAND2X1_20 vdd _155_ gnd i_add_term2[6] i_add_term1[6] NAND2X1
XNAND3X1_8 _155_ vdd gnd _153_ _154_ _156_ NAND3X1
XNOR2X1_8 vdd i_add_term1[6] gnd _150_ i_add_term2[6] NOR2X1
XAND2X2_8 vdd gnd i_add_term2[6] i_add_term1[6] _151_ AND2X2
XOAI21X1_20 gnd vdd _150_ _151_ _152_ _6_[2] OAI21X1
XNAND2X1_21 vdd _4_[2] gnd _152_ _156_ NAND2X1
XOAI21X1_21 gnd vdd _153_ _150_ _6_[3] _155_ OAI21X1
XINVX1_14 _7_ _157_ vdd gnd INVX1
XNAND2X1_22 vdd _158_ gnd _8_ w_cout[1] NAND2X1
XOAI21X1_22 gnd vdd w_cout[1] _157_ w_cout[2] _158_ OAI21X1
XINVX1_15 _9_[0] _159_ vdd gnd INVX1
XNAND2X1_23 vdd _160_ gnd _10_[0] w_cout[1] NAND2X1
XOAI21X1_23 gnd vdd w_cout[1] _159_ _0_[8] _160_ OAI21X1
XINVX1_16 _9_[1] _161_ vdd gnd INVX1
XNAND2X1_24 vdd _162_ gnd w_cout[1] _10_[1] NAND2X1
XOAI21X1_24 gnd vdd w_cout[1] _161_ _0_[9] _162_ OAI21X1
XINVX1_17 _9_[2] _163_ vdd gnd INVX1
XNAND2X1_25 vdd _164_ gnd w_cout[1] _10_[2] NAND2X1
XOAI21X1_25 gnd vdd w_cout[1] _163_ _0_[10] _164_ OAI21X1
XINVX1_18 _9_[3] _165_ vdd gnd INVX1
XNAND2X1_26 vdd _166_ gnd w_cout[1] _10_[3] NAND2X1
XOAI21X1_26 gnd vdd w_cout[1] _165_ _0_[11] _166_ OAI21X1
XINVX1_19 gnd _170_ vdd gnd INVX1
XOR2X2_9 _171_ i_add_term1[8] vdd gnd i_add_term2[8] OR2X2
XNAND2X1_27 vdd _172_ gnd i_add_term2[8] i_add_term1[8] NAND2X1
XNAND3X1_9 _172_ vdd gnd _170_ _171_ _173_ NAND3X1
XNOR2X1_9 vdd i_add_term1[8] gnd _167_ i_add_term2[8] NOR2X1
XAND2X2_9 vdd gnd i_add_term2[8] i_add_term1[8] _168_ AND2X2
XOAI21X1_27 gnd vdd _167_ _168_ _169_ gnd OAI21X1
XNAND2X1_28 vdd _9_[0] gnd _169_ _173_ NAND2X1
XOAI21X1_28 gnd vdd _170_ _167_ _11_[1] _172_ OAI21X1
XINVX1_20 _11_[3] _177_ vdd gnd INVX1
XOR2X2_10 _178_ i_add_term1[11] vdd gnd i_add_term2[11] OR2X2
XNAND2X1_29 vdd _179_ gnd i_add_term2[11] i_add_term1[11] NAND2X1
XNAND3X1_10 _179_ vdd gnd _177_ _178_ _180_ NAND3X1
XNOR2X1_10 vdd i_add_term1[11] gnd _174_ i_add_term2[11] NOR2X1
XAND2X2_10 vdd gnd i_add_term2[11] i_add_term1[11] _175_ AND2X2
XOAI21X1_29 gnd vdd _174_ _175_ _176_ _11_[3] OAI21X1
XNAND2X1_30 vdd _9_[3] gnd _176_ _180_ NAND2X1
XOAI21X1_30 gnd vdd _177_ _174_ _7_ _179_ OAI21X1
XINVX1_21 _11_[1] _184_ vdd gnd INVX1
XOR2X2_11 _185_ i_add_term1[9] vdd gnd i_add_term2[9] OR2X2
XNAND2X1_31 vdd _186_ gnd i_add_term2[9] i_add_term1[9] NAND2X1
XNAND3X1_11 _186_ vdd gnd _184_ _185_ _187_ NAND3X1
XNOR2X1_11 vdd i_add_term1[9] gnd _181_ i_add_term2[9] NOR2X1
XAND2X2_11 vdd gnd i_add_term2[9] i_add_term1[9] _182_ AND2X2
XOAI21X1_31 gnd vdd _181_ _182_ _183_ _11_[1] OAI21X1
XNAND2X1_32 vdd _9_[1] gnd _183_ _187_ NAND2X1
XOAI21X1_32 gnd vdd _184_ _181_ _11_[2] _186_ OAI21X1
XINVX1_22 _11_[2] _191_ vdd gnd INVX1
XOR2X2_12 _192_ i_add_term1[10] vdd gnd i_add_term2[10] OR2X2
XNAND2X1_33 vdd _193_ gnd i_add_term2[10] i_add_term1[10] NAND2X1
XNAND3X1_12 _193_ vdd gnd _191_ _192_ _194_ NAND3X1
XNOR2X1_12 vdd i_add_term1[10] gnd _188_ i_add_term2[10] NOR2X1
XAND2X2_12 vdd gnd i_add_term2[10] i_add_term1[10] _189_ AND2X2
XOAI21X1_33 gnd vdd _188_ _189_ _190_ _11_[2] OAI21X1
XNAND2X1_34 vdd _9_[2] gnd _190_ _194_ NAND2X1
XOAI21X1_34 gnd vdd _191_ _188_ _11_[3] _193_ OAI21X1
XINVX1_23 vdd _198_ vdd gnd INVX1
XOR2X2_13 _199_ i_add_term1[8] vdd gnd i_add_term2[8] OR2X2
XNAND2X1_35 vdd _200_ gnd i_add_term2[8] i_add_term1[8] NAND2X1
XNAND3X1_13 _200_ vdd gnd _198_ _199_ _201_ NAND3X1
XNOR2X1_13 vdd i_add_term1[8] gnd _195_ i_add_term2[8] NOR2X1
XAND2X2_13 vdd gnd i_add_term2[8] i_add_term1[8] _196_ AND2X2
XOAI21X1_35 gnd vdd _195_ _196_ _197_ vdd OAI21X1
XNAND2X1_36 vdd _10_[0] gnd _197_ _201_ NAND2X1
XOAI21X1_36 gnd vdd _198_ _195_ _12_[1] _200_ OAI21X1
XINVX1_24 _12_[3] _205_ vdd gnd INVX1
XOR2X2_14 _206_ i_add_term1[11] vdd gnd i_add_term2[11] OR2X2
XNAND2X1_37 vdd _207_ gnd i_add_term2[11] i_add_term1[11] NAND2X1
XNAND3X1_14 _207_ vdd gnd _205_ _206_ _208_ NAND3X1
XNOR2X1_14 vdd i_add_term1[11] gnd _202_ i_add_term2[11] NOR2X1
XAND2X2_14 vdd gnd i_add_term2[11] i_add_term1[11] _203_ AND2X2
XOAI21X1_37 gnd vdd _202_ _203_ _204_ _12_[3] OAI21X1
XNAND2X1_38 vdd _10_[3] gnd _204_ _208_ NAND2X1
XOAI21X1_38 gnd vdd _205_ _202_ _8_ _207_ OAI21X1
XINVX1_25 _12_[1] _212_ vdd gnd INVX1
XOR2X2_15 _213_ i_add_term1[9] vdd gnd i_add_term2[9] OR2X2
XNAND2X1_39 vdd _214_ gnd i_add_term2[9] i_add_term1[9] NAND2X1
XNAND3X1_15 _214_ vdd gnd _212_ _213_ _215_ NAND3X1
XNOR2X1_15 vdd i_add_term1[9] gnd _209_ i_add_term2[9] NOR2X1
XAND2X2_15 vdd gnd i_add_term2[9] i_add_term1[9] _210_ AND2X2
XOAI21X1_39 gnd vdd _209_ _210_ _211_ _12_[1] OAI21X1
XNAND2X1_40 vdd _10_[1] gnd _211_ _215_ NAND2X1
XOAI21X1_40 gnd vdd _212_ _209_ _12_[2] _214_ OAI21X1
XINVX1_26 _12_[2] _219_ vdd gnd INVX1
XOR2X2_16 _220_ i_add_term1[10] vdd gnd i_add_term2[10] OR2X2
XNAND2X1_41 vdd _221_ gnd i_add_term2[10] i_add_term1[10] NAND2X1
XNAND3X1_16 _221_ vdd gnd _219_ _220_ _222_ NAND3X1
XNOR2X1_16 vdd i_add_term1[10] gnd _216_ i_add_term2[10] NOR2X1
XAND2X2_16 vdd gnd i_add_term2[10] i_add_term1[10] _217_ AND2X2
XOAI21X1_41 gnd vdd _216_ _217_ _218_ _12_[2] OAI21X1
XNAND2X1_42 vdd _10_[2] gnd _218_ _222_ NAND2X1
XOAI21X1_42 gnd vdd _219_ _216_ _12_[3] _221_ OAI21X1
XINVX1_27 _13_ _223_ vdd gnd INVX1
XNAND2X1_43 vdd _224_ gnd _14_ w_cout[2] NAND2X1
XOAI21X1_43 gnd vdd w_cout[2] _223_ w_cout[3] _224_ OAI21X1
XINVX1_28 _15_[0] _225_ vdd gnd INVX1
XNAND2X1_44 vdd _226_ gnd _16_[0] w_cout[2] NAND2X1
XOAI21X1_44 gnd vdd w_cout[2] _225_ _0_[12] _226_ OAI21X1
XINVX1_29 _15_[1] _227_ vdd gnd INVX1
XNAND2X1_45 vdd _228_ gnd w_cout[2] _16_[1] NAND2X1
XOAI21X1_45 gnd vdd w_cout[2] _227_ _0_[13] _228_ OAI21X1
XINVX1_30 _15_[2] _229_ vdd gnd INVX1
XNAND2X1_46 vdd _230_ gnd w_cout[2] _16_[2] NAND2X1
XOAI21X1_46 gnd vdd w_cout[2] _229_ _0_[14] _230_ OAI21X1
XINVX1_31 _15_[3] _231_ vdd gnd INVX1
XNAND2X1_47 vdd _232_ gnd w_cout[2] _16_[3] NAND2X1
XOAI21X1_47 gnd vdd w_cout[2] _231_ _0_[15] _232_ OAI21X1
XINVX1_32 gnd _236_ vdd gnd INVX1
XOR2X2_17 _237_ i_add_term1[12] vdd gnd i_add_term2[12] OR2X2
XNAND2X1_48 vdd _238_ gnd i_add_term2[12] i_add_term1[12] NAND2X1
XNAND3X1_17 _238_ vdd gnd _236_ _237_ _239_ NAND3X1
XNOR2X1_17 vdd i_add_term1[12] gnd _233_ i_add_term2[12] NOR2X1
XAND2X2_17 vdd gnd i_add_term2[12] i_add_term1[12] _234_ AND2X2
XOAI21X1_48 gnd vdd _233_ _234_ _235_ gnd OAI21X1
XNAND2X1_49 vdd _15_[0] gnd _235_ _239_ NAND2X1
XOAI21X1_49 gnd vdd _236_ _233_ _17_[1] _238_ OAI21X1
XINVX1_33 _17_[3] _243_ vdd gnd INVX1
XOR2X2_18 _244_ i_add_term1[15] vdd gnd i_add_term2[15] OR2X2
XNAND2X1_50 vdd _245_ gnd i_add_term2[15] i_add_term1[15] NAND2X1
XNAND3X1_18 _245_ vdd gnd _243_ _244_ _246_ NAND3X1
XNOR2X1_18 vdd i_add_term1[15] gnd _240_ i_add_term2[15] NOR2X1
XAND2X2_18 vdd gnd i_add_term2[15] i_add_term1[15] _241_ AND2X2
XOAI21X1_50 gnd vdd _240_ _241_ _242_ _17_[3] OAI21X1
XNAND2X1_51 vdd _15_[3] gnd _242_ _246_ NAND2X1
XOAI21X1_51 gnd vdd _243_ _240_ _13_ _245_ OAI21X1
XINVX1_34 _17_[1] _250_ vdd gnd INVX1
XOR2X2_19 _251_ i_add_term1[13] vdd gnd i_add_term2[13] OR2X2
XNAND2X1_52 vdd _252_ gnd i_add_term2[13] i_add_term1[13] NAND2X1
XNAND3X1_19 _252_ vdd gnd _250_ _251_ _253_ NAND3X1
XNOR2X1_19 vdd i_add_term1[13] gnd _247_ i_add_term2[13] NOR2X1
XAND2X2_19 vdd gnd i_add_term2[13] i_add_term1[13] _248_ AND2X2
XOAI21X1_52 gnd vdd _247_ _248_ _249_ _17_[1] OAI21X1
XNAND2X1_53 vdd _15_[1] gnd _249_ _253_ NAND2X1
XOAI21X1_53 gnd vdd _250_ _247_ _17_[2] _252_ OAI21X1
XINVX1_35 _17_[2] _257_ vdd gnd INVX1
XOR2X2_20 _258_ i_add_term1[14] vdd gnd i_add_term2[14] OR2X2
XNAND2X1_54 vdd _259_ gnd i_add_term2[14] i_add_term1[14] NAND2X1
XNAND3X1_20 _259_ vdd gnd _257_ _258_ _260_ NAND3X1
XNOR2X1_20 vdd i_add_term1[14] gnd _254_ i_add_term2[14] NOR2X1
XAND2X2_20 vdd gnd i_add_term2[14] i_add_term1[14] _255_ AND2X2
XOAI21X1_54 gnd vdd _254_ _255_ _256_ _17_[2] OAI21X1
XNAND2X1_55 vdd _15_[2] gnd _256_ _260_ NAND2X1
XOAI21X1_55 gnd vdd _257_ _254_ _17_[3] _259_ OAI21X1
XINVX1_36 vdd _264_ vdd gnd INVX1
XOR2X2_21 _265_ i_add_term1[12] vdd gnd i_add_term2[12] OR2X2
XNAND2X1_56 vdd _266_ gnd i_add_term2[12] i_add_term1[12] NAND2X1
XNAND3X1_21 _266_ vdd gnd _264_ _265_ _267_ NAND3X1
XNOR2X1_21 vdd i_add_term1[12] gnd _261_ i_add_term2[12] NOR2X1
XAND2X2_21 vdd gnd i_add_term2[12] i_add_term1[12] _262_ AND2X2
XOAI21X1_56 gnd vdd _261_ _262_ _263_ vdd OAI21X1
XNAND2X1_57 vdd _16_[0] gnd _263_ _267_ NAND2X1
XOAI21X1_57 gnd vdd _264_ _261_ _18_[1] _266_ OAI21X1
XINVX1_37 _18_[3] _271_ vdd gnd INVX1
XOR2X2_22 _272_ i_add_term1[15] vdd gnd i_add_term2[15] OR2X2
XNAND2X1_58 vdd _273_ gnd i_add_term2[15] i_add_term1[15] NAND2X1
XNAND3X1_22 _273_ vdd gnd _271_ _272_ _274_ NAND3X1
XNOR2X1_22 vdd i_add_term1[15] gnd _268_ i_add_term2[15] NOR2X1
XAND2X2_22 vdd gnd i_add_term2[15] i_add_term1[15] _269_ AND2X2
XOAI21X1_58 gnd vdd _268_ _269_ _270_ _18_[3] OAI21X1
XNAND2X1_59 vdd _16_[3] gnd _270_ _274_ NAND2X1
XOAI21X1_59 gnd vdd _271_ _268_ _14_ _273_ OAI21X1
XINVX1_38 _18_[1] _278_ vdd gnd INVX1
XOR2X2_23 _279_ i_add_term1[13] vdd gnd i_add_term2[13] OR2X2
XNAND2X1_60 vdd _280_ gnd i_add_term2[13] i_add_term1[13] NAND2X1
XNAND3X1_23 _280_ vdd gnd _278_ _279_ _281_ NAND3X1
XNOR2X1_23 vdd i_add_term1[13] gnd _275_ i_add_term2[13] NOR2X1
XAND2X2_23 vdd gnd i_add_term2[13] i_add_term1[13] _276_ AND2X2
XOAI21X1_60 gnd vdd _275_ _276_ _277_ _18_[1] OAI21X1
XNAND2X1_61 vdd _16_[1] gnd _277_ _281_ NAND2X1
XOAI21X1_61 gnd vdd _278_ _275_ _18_[2] _280_ OAI21X1
XINVX1_39 _18_[2] _285_ vdd gnd INVX1
XOR2X2_24 _286_ i_add_term1[14] vdd gnd i_add_term2[14] OR2X2
XNAND2X1_62 vdd _287_ gnd i_add_term2[14] i_add_term1[14] NAND2X1
XNAND3X1_24 _287_ vdd gnd _285_ _286_ _288_ NAND3X1
XNOR2X1_24 vdd i_add_term1[14] gnd _282_ i_add_term2[14] NOR2X1
XAND2X2_24 vdd gnd i_add_term2[14] i_add_term1[14] _283_ AND2X2
XOAI21X1_62 gnd vdd _282_ _283_ _284_ _18_[2] OAI21X1
XNAND2X1_63 vdd _16_[2] gnd _284_ _288_ NAND2X1
XOAI21X1_63 gnd vdd _285_ _282_ _18_[3] _287_ OAI21X1
XINVX1_40 _19_ _289_ vdd gnd INVX1
XNAND2X1_64 vdd _290_ gnd _20_ w_cout[3] NAND2X1
XOAI21X1_64 gnd vdd w_cout[3] _289_ w_cout[4] _290_ OAI21X1
XINVX1_41 _21_[0] _291_ vdd gnd INVX1
XNAND2X1_65 vdd _292_ gnd _22_[0] w_cout[3] NAND2X1
XOAI21X1_65 gnd vdd w_cout[3] _291_ _0_[16] _292_ OAI21X1
XINVX1_42 _21_[1] _293_ vdd gnd INVX1
XNAND2X1_66 vdd _294_ gnd w_cout[3] _22_[1] NAND2X1
XOAI21X1_66 gnd vdd w_cout[3] _293_ _0_[17] _294_ OAI21X1
XINVX1_43 _21_[2] _295_ vdd gnd INVX1
XNAND2X1_67 vdd _296_ gnd w_cout[3] _22_[2] NAND2X1
XOAI21X1_67 gnd vdd w_cout[3] _295_ _0_[18] _296_ OAI21X1
XINVX1_44 _21_[3] _297_ vdd gnd INVX1
XNAND2X1_68 vdd _298_ gnd w_cout[3] _22_[3] NAND2X1
XOAI21X1_68 gnd vdd w_cout[3] _297_ _0_[19] _298_ OAI21X1
XINVX1_45 gnd _302_ vdd gnd INVX1
XOR2X2_25 _303_ i_add_term1[16] vdd gnd i_add_term2[16] OR2X2
XNAND2X1_69 vdd _304_ gnd i_add_term2[16] i_add_term1[16] NAND2X1
XNAND3X1_25 _304_ vdd gnd _302_ _303_ _305_ NAND3X1
XNOR2X1_25 vdd i_add_term1[16] gnd _299_ i_add_term2[16] NOR2X1
XAND2X2_25 vdd gnd i_add_term2[16] i_add_term1[16] _300_ AND2X2
XOAI21X1_69 gnd vdd _299_ _300_ _301_ gnd OAI21X1
XNAND2X1_70 vdd _21_[0] gnd _301_ _305_ NAND2X1
XOAI21X1_70 gnd vdd _302_ _299_ _23_[1] _304_ OAI21X1
XINVX1_46 _23_[3] _309_ vdd gnd INVX1
XOR2X2_26 _310_ i_add_term1[19] vdd gnd i_add_term2[19] OR2X2
XNAND2X1_71 vdd _311_ gnd i_add_term2[19] i_add_term1[19] NAND2X1
XNAND3X1_26 _311_ vdd gnd _309_ _310_ _312_ NAND3X1
XNOR2X1_26 vdd i_add_term1[19] gnd _306_ i_add_term2[19] NOR2X1
XAND2X2_26 vdd gnd i_add_term2[19] i_add_term1[19] _307_ AND2X2
XOAI21X1_71 gnd vdd _306_ _307_ _308_ _23_[3] OAI21X1
XNAND2X1_72 vdd _21_[3] gnd _308_ _312_ NAND2X1
XOAI21X1_72 gnd vdd _309_ _306_ _19_ _311_ OAI21X1
XINVX1_47 _23_[1] _316_ vdd gnd INVX1
XOR2X2_27 _317_ i_add_term1[17] vdd gnd i_add_term2[17] OR2X2
XNAND2X1_73 vdd _318_ gnd i_add_term2[17] i_add_term1[17] NAND2X1
XNAND3X1_27 _318_ vdd gnd _316_ _317_ _319_ NAND3X1
XNOR2X1_27 vdd i_add_term1[17] gnd _313_ i_add_term2[17] NOR2X1
XAND2X2_27 vdd gnd i_add_term2[17] i_add_term1[17] _314_ AND2X2
XOAI21X1_73 gnd vdd _313_ _314_ _315_ _23_[1] OAI21X1
XNAND2X1_74 vdd _21_[1] gnd _315_ _319_ NAND2X1
XOAI21X1_74 gnd vdd _316_ _313_ _23_[2] _318_ OAI21X1
XINVX1_48 _23_[2] _323_ vdd gnd INVX1
XOR2X2_28 _324_ i_add_term1[18] vdd gnd i_add_term2[18] OR2X2
XNAND2X1_75 vdd _325_ gnd i_add_term2[18] i_add_term1[18] NAND2X1
XNAND3X1_28 _325_ vdd gnd _323_ _324_ _326_ NAND3X1
XNOR2X1_28 vdd i_add_term1[18] gnd _320_ i_add_term2[18] NOR2X1
XAND2X2_28 vdd gnd i_add_term2[18] i_add_term1[18] _321_ AND2X2
XOAI21X1_75 gnd vdd _320_ _321_ _322_ _23_[2] OAI21X1
XNAND2X1_76 vdd _21_[2] gnd _322_ _326_ NAND2X1
XOAI21X1_76 gnd vdd _323_ _320_ _23_[3] _325_ OAI21X1
XINVX1_49 vdd _330_ vdd gnd INVX1
XOR2X2_29 _331_ i_add_term1[16] vdd gnd i_add_term2[16] OR2X2
XNAND2X1_77 vdd _332_ gnd i_add_term2[16] i_add_term1[16] NAND2X1
XNAND3X1_29 _332_ vdd gnd _330_ _331_ _333_ NAND3X1
XNOR2X1_29 vdd i_add_term1[16] gnd _327_ i_add_term2[16] NOR2X1
XAND2X2_29 vdd gnd i_add_term2[16] i_add_term1[16] _328_ AND2X2
XOAI21X1_77 gnd vdd _327_ _328_ _329_ vdd OAI21X1
XNAND2X1_78 vdd _22_[0] gnd _329_ _333_ NAND2X1
XOAI21X1_78 gnd vdd _330_ _327_ _24_[1] _332_ OAI21X1
XINVX1_50 _24_[3] _337_ vdd gnd INVX1
XOR2X2_30 _338_ i_add_term1[19] vdd gnd i_add_term2[19] OR2X2
XNAND2X1_79 vdd _339_ gnd i_add_term2[19] i_add_term1[19] NAND2X1
XNAND3X1_30 _339_ vdd gnd _337_ _338_ _340_ NAND3X1
XNOR2X1_30 vdd i_add_term1[19] gnd _334_ i_add_term2[19] NOR2X1
XAND2X2_30 vdd gnd i_add_term2[19] i_add_term1[19] _335_ AND2X2
XOAI21X1_79 gnd vdd _334_ _335_ _336_ _24_[3] OAI21X1
XNAND2X1_80 vdd _22_[3] gnd _336_ _340_ NAND2X1
XOAI21X1_80 gnd vdd _337_ _334_ _20_ _339_ OAI21X1
XINVX1_51 _24_[1] _344_ vdd gnd INVX1
XOR2X2_31 _345_ i_add_term1[17] vdd gnd i_add_term2[17] OR2X2
XNAND2X1_81 vdd _346_ gnd i_add_term2[17] i_add_term1[17] NAND2X1
XNAND3X1_31 _346_ vdd gnd _344_ _345_ _347_ NAND3X1
XNOR2X1_31 vdd i_add_term1[17] gnd _341_ i_add_term2[17] NOR2X1
XAND2X2_31 vdd gnd i_add_term2[17] i_add_term1[17] _342_ AND2X2
XOAI21X1_81 gnd vdd _341_ _342_ _343_ _24_[1] OAI21X1
XNAND2X1_82 vdd _22_[1] gnd _343_ _347_ NAND2X1
XOAI21X1_82 gnd vdd _344_ _341_ _24_[2] _346_ OAI21X1
XINVX1_52 _24_[2] _351_ vdd gnd INVX1
XOR2X2_32 _352_ i_add_term1[18] vdd gnd i_add_term2[18] OR2X2
XNAND2X1_83 vdd _353_ gnd i_add_term2[18] i_add_term1[18] NAND2X1
XNAND3X1_32 _353_ vdd gnd _351_ _352_ _354_ NAND3X1
XNOR2X1_32 vdd i_add_term1[18] gnd _348_ i_add_term2[18] NOR2X1
XAND2X2_32 vdd gnd i_add_term2[18] i_add_term1[18] _349_ AND2X2
XOAI21X1_83 gnd vdd _348_ _349_ _350_ _24_[2] OAI21X1
XNAND2X1_84 vdd _22_[2] gnd _350_ _354_ NAND2X1
XOAI21X1_84 gnd vdd _351_ _348_ _24_[3] _353_ OAI21X1
XINVX1_53 _25_ _355_ vdd gnd INVX1
XNAND2X1_85 vdd _356_ gnd _26_ w_cout[4] NAND2X1
XOAI21X1_85 gnd vdd w_cout[4] _355_ w_cout[5] _356_ OAI21X1
XINVX1_54 _27_[0] _357_ vdd gnd INVX1
XNAND2X1_86 vdd _358_ gnd _28_[0] w_cout[4] NAND2X1
XOAI21X1_86 gnd vdd w_cout[4] _357_ _0_[20] _358_ OAI21X1
XINVX1_55 _27_[1] _359_ vdd gnd INVX1
XNAND2X1_87 vdd _360_ gnd w_cout[4] _28_[1] NAND2X1
XOAI21X1_87 gnd vdd w_cout[4] _359_ _0_[21] _360_ OAI21X1
XINVX1_56 _27_[2] _361_ vdd gnd INVX1
XNAND2X1_88 vdd _362_ gnd w_cout[4] _28_[2] NAND2X1
XOAI21X1_88 gnd vdd w_cout[4] _361_ _0_[22] _362_ OAI21X1
XINVX1_57 _27_[3] _363_ vdd gnd INVX1
XNAND2X1_89 vdd _364_ gnd w_cout[4] _28_[3] NAND2X1
XOAI21X1_89 gnd vdd w_cout[4] _363_ _0_[23] _364_ OAI21X1
XINVX1_58 gnd _368_ vdd gnd INVX1
XOR2X2_33 _369_ i_add_term1[20] vdd gnd i_add_term2[20] OR2X2
XNAND2X1_90 vdd _370_ gnd i_add_term2[20] i_add_term1[20] NAND2X1
XNAND3X1_33 _370_ vdd gnd _368_ _369_ _371_ NAND3X1
XNOR2X1_33 vdd i_add_term1[20] gnd _365_ i_add_term2[20] NOR2X1
XAND2X2_33 vdd gnd i_add_term2[20] i_add_term1[20] _366_ AND2X2
XOAI21X1_90 gnd vdd _365_ _366_ _367_ gnd OAI21X1
XNAND2X1_91 vdd _27_[0] gnd _367_ _371_ NAND2X1
XOAI21X1_91 gnd vdd _368_ _365_ _29_[1] _370_ OAI21X1
XINVX1_59 _29_[3] _375_ vdd gnd INVX1
XOR2X2_34 _376_ i_add_term1[23] vdd gnd i_add_term2[23] OR2X2
XNAND2X1_92 vdd _377_ gnd i_add_term2[23] i_add_term1[23] NAND2X1
XNAND3X1_34 _377_ vdd gnd _375_ _376_ _378_ NAND3X1
XNOR2X1_34 vdd i_add_term1[23] gnd _372_ i_add_term2[23] NOR2X1
XAND2X2_34 vdd gnd i_add_term2[23] i_add_term1[23] _373_ AND2X2
XOAI21X1_92 gnd vdd _372_ _373_ _374_ _29_[3] OAI21X1
XNAND2X1_93 vdd _27_[3] gnd _374_ _378_ NAND2X1
XOAI21X1_93 gnd vdd _375_ _372_ _25_ _377_ OAI21X1
XINVX1_60 _29_[1] _382_ vdd gnd INVX1
XOR2X2_35 _383_ i_add_term1[21] vdd gnd i_add_term2[21] OR2X2
XNAND2X1_94 vdd _384_ gnd i_add_term2[21] i_add_term1[21] NAND2X1
XNAND3X1_35 _384_ vdd gnd _382_ _383_ _385_ NAND3X1
XNOR2X1_35 vdd i_add_term1[21] gnd _379_ i_add_term2[21] NOR2X1
XAND2X2_35 vdd gnd i_add_term2[21] i_add_term1[21] _380_ AND2X2
XOAI21X1_94 gnd vdd _379_ _380_ _381_ _29_[1] OAI21X1
XNAND2X1_95 vdd _27_[1] gnd _381_ _385_ NAND2X1
XOAI21X1_95 gnd vdd _382_ _379_ _29_[2] _384_ OAI21X1
XINVX1_61 _29_[2] _389_ vdd gnd INVX1
XOR2X2_36 _390_ i_add_term1[22] vdd gnd i_add_term2[22] OR2X2
XNAND2X1_96 vdd _391_ gnd i_add_term2[22] i_add_term1[22] NAND2X1
XNAND3X1_36 _391_ vdd gnd _389_ _390_ _392_ NAND3X1
XNOR2X1_36 vdd i_add_term1[22] gnd _386_ i_add_term2[22] NOR2X1
XAND2X2_36 vdd gnd i_add_term2[22] i_add_term1[22] _387_ AND2X2
XOAI21X1_96 gnd vdd _386_ _387_ _388_ _29_[2] OAI21X1
XNAND2X1_97 vdd _27_[2] gnd _388_ _392_ NAND2X1
XOAI21X1_97 gnd vdd _389_ _386_ _29_[3] _391_ OAI21X1
XINVX1_62 vdd _396_ vdd gnd INVX1
XOR2X2_37 _397_ i_add_term1[20] vdd gnd i_add_term2[20] OR2X2
XNAND2X1_98 vdd _398_ gnd i_add_term2[20] i_add_term1[20] NAND2X1
XNAND3X1_37 _398_ vdd gnd _396_ _397_ _399_ NAND3X1
XNOR2X1_37 vdd i_add_term1[20] gnd _393_ i_add_term2[20] NOR2X1
XAND2X2_37 vdd gnd i_add_term2[20] i_add_term1[20] _394_ AND2X2
XOAI21X1_98 gnd vdd _393_ _394_ _395_ vdd OAI21X1
XNAND2X1_99 vdd _28_[0] gnd _395_ _399_ NAND2X1
XOAI21X1_99 gnd vdd _396_ _393_ _30_[1] _398_ OAI21X1
XINVX1_63 _30_[3] _403_ vdd gnd INVX1
XOR2X2_38 _404_ i_add_term1[23] vdd gnd i_add_term2[23] OR2X2
XNAND2X1_100 vdd _405_ gnd i_add_term2[23] i_add_term1[23] NAND2X1
XNAND3X1_38 _405_ vdd gnd _403_ _404_ _406_ NAND3X1
XNOR2X1_38 vdd i_add_term1[23] gnd _400_ i_add_term2[23] NOR2X1
XAND2X2_38 vdd gnd i_add_term2[23] i_add_term1[23] _401_ AND2X2
XOAI21X1_100 gnd vdd _400_ _401_ _402_ _30_[3] OAI21X1
XNAND2X1_101 vdd _28_[3] gnd _402_ _406_ NAND2X1
XOAI21X1_101 gnd vdd _403_ _400_ _26_ _405_ OAI21X1
XINVX1_64 _30_[1] _410_ vdd gnd INVX1
XOR2X2_39 _411_ i_add_term1[21] vdd gnd i_add_term2[21] OR2X2
XNAND2X1_102 vdd _412_ gnd i_add_term2[21] i_add_term1[21] NAND2X1
XNAND3X1_39 _412_ vdd gnd _410_ _411_ _413_ NAND3X1
XNOR2X1_39 vdd i_add_term1[21] gnd _407_ i_add_term2[21] NOR2X1
XAND2X2_39 vdd gnd i_add_term2[21] i_add_term1[21] _408_ AND2X2
XOAI21X1_102 gnd vdd _407_ _408_ _409_ _30_[1] OAI21X1
XNAND2X1_103 vdd _28_[1] gnd _409_ _413_ NAND2X1
XOAI21X1_103 gnd vdd _410_ _407_ _30_[2] _412_ OAI21X1
XINVX1_65 _30_[2] _417_ vdd gnd INVX1
XOR2X2_40 _418_ i_add_term1[22] vdd gnd i_add_term2[22] OR2X2
XNAND2X1_104 vdd _419_ gnd i_add_term2[22] i_add_term1[22] NAND2X1
XNAND3X1_40 _419_ vdd gnd _417_ _418_ _420_ NAND3X1
XNOR2X1_40 vdd i_add_term1[22] gnd _414_ i_add_term2[22] NOR2X1
XAND2X2_40 vdd gnd i_add_term2[22] i_add_term1[22] _415_ AND2X2
XOAI21X1_104 gnd vdd _414_ _415_ _416_ _30_[2] OAI21X1
XNAND2X1_105 vdd _28_[2] gnd _416_ _420_ NAND2X1
XOAI21X1_105 gnd vdd _417_ _414_ _30_[3] _419_ OAI21X1
XINVX1_66 _31_ _421_ vdd gnd INVX1
XNAND2X1_106 vdd _422_ gnd _32_ w_cout[5] NAND2X1
XOAI21X1_106 gnd vdd w_cout[5] _421_ w_cout[6] _422_ OAI21X1
XINVX1_67 _33_[0] _423_ vdd gnd INVX1
XNAND2X1_107 vdd _424_ gnd _34_[0] w_cout[5] NAND2X1
XOAI21X1_107 gnd vdd w_cout[5] _423_ _0_[24] _424_ OAI21X1
XINVX1_68 _33_[1] _425_ vdd gnd INVX1
XNAND2X1_108 vdd _426_ gnd w_cout[5] _34_[1] NAND2X1
XOAI21X1_108 gnd vdd w_cout[5] _425_ _0_[25] _426_ OAI21X1
XINVX1_69 _33_[2] _427_ vdd gnd INVX1
XNAND2X1_109 vdd _428_ gnd w_cout[5] _34_[2] NAND2X1
XOAI21X1_109 gnd vdd w_cout[5] _427_ _0_[26] _428_ OAI21X1
XINVX1_70 _33_[3] _429_ vdd gnd INVX1
XNAND2X1_110 vdd _430_ gnd w_cout[5] _34_[3] NAND2X1
XOAI21X1_110 gnd vdd w_cout[5] _429_ _0_[27] _430_ OAI21X1
XINVX1_71 gnd _434_ vdd gnd INVX1
XOR2X2_41 _435_ i_add_term1[24] vdd gnd i_add_term2[24] OR2X2
XNAND2X1_111 vdd _436_ gnd i_add_term2[24] i_add_term1[24] NAND2X1
XNAND3X1_41 _436_ vdd gnd _434_ _435_ _437_ NAND3X1
XNOR2X1_41 vdd i_add_term1[24] gnd _431_ i_add_term2[24] NOR2X1
XAND2X2_41 vdd gnd i_add_term2[24] i_add_term1[24] _432_ AND2X2
XOAI21X1_111 gnd vdd _431_ _432_ _433_ gnd OAI21X1
XNAND2X1_112 vdd _33_[0] gnd _433_ _437_ NAND2X1