*SPICE netlist created from BLIF module csa_43bit by blif2BSpice
.include /usr/local/share/qflow/tech/osu035/osu035_stdcells.sp
.subckt csa_43bit vdd gnd i_add_term1[0] i_add_term1[1] i_add_term1[2] i_add_term1[3] i_add_term1[4] i_add_term1[5] i_add_term1[6] i_add_term1[7] i_add_term1[8] i_add_term1[9] i_add_term1[10] i_add_term1[11] i_add_term1[12] i_add_term1[13] i_add_term1[14] i_add_term1[15] i_add_term1[16] i_add_term1[17] i_add_term1[18] i_add_term1[19] i_add_term1[20] i_add_term1[21] i_add_term1[22] i_add_term1[23] i_add_term1[24] i_add_term1[25] i_add_term1[26] i_add_term1[27] i_add_term1[28] i_add_term1[29] i_add_term1[30] i_add_term1[31] i_add_term1[32] i_add_term1[33] i_add_term1[34] i_add_term1[35] i_add_term1[36] i_add_term1[37] i_add_term1[38] i_add_term1[39] i_add_term1[40] i_add_term1[41] i_add_term1[42] i_add_term2[0] i_add_term2[1] i_add_term2[2] i_add_term2[3] i_add_term2[4] i_add_term2[5] i_add_term2[6] i_add_term2[7] i_add_term2[8] i_add_term2[9] i_add_term2[10] i_add_term2[11] i_add_term2[12] i_add_term2[13] i_add_term2[14] i_add_term2[15] i_add_term2[16] i_add_term2[17] i_add_term2[18] i_add_term2[19] i_add_term2[20] i_add_term2[21] i_add_term2[22] i_add_term2[23] i_add_term2[24] i_add_term2[25] i_add_term2[26] i_add_term2[27] i_add_term2[28] i_add_term2[29] i_add_term2[30] i_add_term2[31] i_add_term2[32] i_add_term2[33] i_add_term2[34] i_add_term2[35] i_add_term2[36] i_add_term2[37] i_add_term2[38] i_add_term2[39] i_add_term2[40] i_add_term2[41] i_add_term2[42] sum[0] sum[1] sum[2] sum[3] sum[4] sum[5] sum[6] sum[7] sum[8] sum[9] sum[10] sum[11] sum[12] sum[13] sum[14] sum[15] sum[16] sum[17] sum[18] sum[19] sum[20] sum[21] sum[22] sum[23] sum[24] sum[25] sum[26] sum[27] sum[28] sum[29] sum[30] sum[31] sum[32] sum[33] sum[34] sum[35] sum[36] sum[37] sum[38] sum[39] sum[40] sum[41] sum[42] cout 
XNOR2X1_1 vdd i_add_term1[12] gnd _225_ i_add_term2[12] NOR2X1
XAND2X2_1 vdd gnd i_add_term2[12] i_add_term1[12] _226_ AND2X2
XOAI21X1_1 gnd vdd _225_ _226_ _227_ vdd OAI21X1
XNAND2X1_1 vdd _16_[0] gnd _227_ _231_ NAND2X1
XOAI21X1_2 gnd vdd _228_ _225_ _18_[1] _230_ OAI21X1
XINVX1_1 _18_[3] _235_ vdd gnd INVX1
XOR2X2_1 _236_ i_add_term1[15] vdd gnd i_add_term2[15] OR2X2
XNAND2X1_2 vdd _237_ gnd i_add_term2[15] i_add_term1[15] NAND2X1
XNAND3X1_1 _237_ vdd gnd _235_ _236_ _238_ NAND3X1
XNOR2X1_2 vdd i_add_term1[15] gnd _232_ i_add_term2[15] NOR2X1
XAND2X2_2 vdd gnd i_add_term2[15] i_add_term1[15] _233_ AND2X2
XOAI21X1_3 gnd vdd _232_ _233_ _234_ _18_[3] OAI21X1
XNAND2X1_3 vdd _16_[3] gnd _234_ _238_ NAND2X1
XOAI21X1_4 gnd vdd _235_ _232_ _14_ _237_ OAI21X1
XINVX1_2 _18_[1] _242_ vdd gnd INVX1
XOR2X2_2 _243_ i_add_term1[13] vdd gnd i_add_term2[13] OR2X2
XNAND2X1_4 vdd _244_ gnd i_add_term2[13] i_add_term1[13] NAND2X1
XNAND3X1_2 _244_ vdd gnd _242_ _243_ _245_ NAND3X1
XNOR2X1_3 vdd i_add_term1[13] gnd _239_ i_add_term2[13] NOR2X1
XAND2X2_3 vdd gnd i_add_term2[13] i_add_term1[13] _240_ AND2X2
XOAI21X1_5 gnd vdd _239_ _240_ _241_ _18_[1] OAI21X1
XNAND2X1_5 vdd _16_[1] gnd _241_ _245_ NAND2X1
XOAI21X1_6 gnd vdd _242_ _239_ _18_[2] _244_ OAI21X1
XINVX1_3 _18_[2] _249_ vdd gnd INVX1
XOR2X2_3 _250_ i_add_term1[14] vdd gnd i_add_term2[14] OR2X2
XNAND2X1_6 vdd _251_ gnd i_add_term2[14] i_add_term1[14] NAND2X1
XNAND3X1_3 _251_ vdd gnd _249_ _250_ _252_ NAND3X1
XNOR2X1_4 vdd i_add_term1[14] gnd _246_ i_add_term2[14] NOR2X1
XAND2X2_4 vdd gnd i_add_term2[14] i_add_term1[14] _247_ AND2X2
XOAI21X1_7 gnd vdd _246_ _247_ _248_ _18_[2] OAI21X1
XNAND2X1_7 vdd _16_[2] gnd _248_ _252_ NAND2X1
XOAI21X1_8 gnd vdd _249_ _246_ _18_[3] _251_ OAI21X1
XINVX1_4 _19_ _253_ vdd gnd INVX1
XNAND2X1_8 vdd _254_ gnd _20_ w_cout[3] NAND2X1
XOAI21X1_9 gnd vdd w_cout[3] _253_ w_cout[4] _254_ OAI21X1
XINVX1_5 _21_[0] _255_ vdd gnd INVX1
XNAND2X1_9 vdd _256_ gnd _22_[0] w_cout[3] NAND2X1
XOAI21X1_10 gnd vdd w_cout[3] _255_ _0_[16] _256_ OAI21X1
XINVX1_6 _21_[1] _257_ vdd gnd INVX1
XNAND2X1_10 vdd _258_ gnd w_cout[3] _22_[1] NAND2X1
XOAI21X1_11 gnd vdd w_cout[3] _257_ _0_[17] _258_ OAI21X1
XINVX1_7 _21_[2] _259_ vdd gnd INVX1
XNAND2X1_11 vdd _260_ gnd w_cout[3] _22_[2] NAND2X1
XOAI21X1_12 gnd vdd w_cout[3] _259_ _0_[18] _260_ OAI21X1
XINVX1_8 _21_[3] _261_ vdd gnd INVX1
XNAND2X1_12 vdd _262_ gnd w_cout[3] _22_[3] NAND2X1
XOAI21X1_13 gnd vdd w_cout[3] _261_ _0_[19] _262_ OAI21X1
XINVX1_9 gnd _266_ vdd gnd INVX1
XOR2X2_4 _267_ i_add_term1[16] vdd gnd i_add_term2[16] OR2X2
XNAND2X1_13 vdd _268_ gnd i_add_term2[16] i_add_term1[16] NAND2X1
XNAND3X1_4 _268_ vdd gnd _266_ _267_ _269_ NAND3X1
XNOR2X1_5 vdd i_add_term1[16] gnd _263_ i_add_term2[16] NOR2X1
XAND2X2_5 vdd gnd i_add_term2[16] i_add_term1[16] _264_ AND2X2
XOAI21X1_14 gnd vdd _263_ _264_ _265_ gnd OAI21X1
XNAND2X1_14 vdd _21_[0] gnd _265_ _269_ NAND2X1
XOAI21X1_15 gnd vdd _266_ _263_ _23_[1] _268_ OAI21X1
XINVX1_10 _23_[3] _273_ vdd gnd INVX1
XOR2X2_5 _274_ i_add_term1[19] vdd gnd i_add_term2[19] OR2X2
XNAND2X1_15 vdd _275_ gnd i_add_term2[19] i_add_term1[19] NAND2X1
XNAND3X1_5 _275_ vdd gnd _273_ _274_ _276_ NAND3X1
XNOR2X1_6 vdd i_add_term1[19] gnd _270_ i_add_term2[19] NOR2X1
XAND2X2_6 vdd gnd i_add_term2[19] i_add_term1[19] _271_ AND2X2
XOAI21X1_16 gnd vdd _270_ _271_ _272_ _23_[3] OAI21X1
XNAND2X1_16 vdd _21_[3] gnd _272_ _276_ NAND2X1
XOAI21X1_17 gnd vdd _273_ _270_ _19_ _275_ OAI21X1
XINVX1_11 _23_[1] _280_ vdd gnd INVX1
XOR2X2_6 _281_ i_add_term1[17] vdd gnd i_add_term2[17] OR2X2
XNAND2X1_17 vdd _282_ gnd i_add_term2[17] i_add_term1[17] NAND2X1
XNAND3X1_6 _282_ vdd gnd _280_ _281_ _283_ NAND3X1
XNOR2X1_7 vdd i_add_term1[17] gnd _277_ i_add_term2[17] NOR2X1
XAND2X2_7 vdd gnd i_add_term2[17] i_add_term1[17] _278_ AND2X2
XOAI21X1_18 gnd vdd _277_ _278_ _279_ _23_[1] OAI21X1
XNAND2X1_18 vdd _21_[1] gnd _279_ _283_ NAND2X1
XOAI21X1_19 gnd vdd _280_ _277_ _23_[2] _282_ OAI21X1
XINVX1_12 _23_[2] _287_ vdd gnd INVX1
XOR2X2_7 _288_ i_add_term1[18] vdd gnd i_add_term2[18] OR2X2
XNAND2X1_19 vdd _289_ gnd i_add_term2[18] i_add_term1[18] NAND2X1
XNAND3X1_7 _289_ vdd gnd _287_ _288_ _290_ NAND3X1
XNOR2X1_8 vdd i_add_term1[18] gnd _284_ i_add_term2[18] NOR2X1
XAND2X2_8 vdd gnd i_add_term2[18] i_add_term1[18] _285_ AND2X2
XOAI21X1_20 gnd vdd _284_ _285_ _286_ _23_[2] OAI21X1
XNAND2X1_20 vdd _21_[2] gnd _286_ _290_ NAND2X1
XOAI21X1_21 gnd vdd _287_ _284_ _23_[3] _289_ OAI21X1
XINVX1_13 vdd _294_ vdd gnd INVX1
XOR2X2_8 _295_ i_add_term1[16] vdd gnd i_add_term2[16] OR2X2
XNAND2X1_21 vdd _296_ gnd i_add_term2[16] i_add_term1[16] NAND2X1
XNAND3X1_8 _296_ vdd gnd _294_ _295_ _297_ NAND3X1
XNOR2X1_9 vdd i_add_term1[16] gnd _291_ i_add_term2[16] NOR2X1
XAND2X2_9 vdd gnd i_add_term2[16] i_add_term1[16] _292_ AND2X2
XOAI21X1_22 gnd vdd _291_ _292_ _293_ vdd OAI21X1
XNAND2X1_22 vdd _22_[0] gnd _293_ _297_ NAND2X1
XOAI21X1_23 gnd vdd _294_ _291_ _24_[1] _296_ OAI21X1
XINVX1_14 _24_[3] _301_ vdd gnd INVX1
XOR2X2_9 _302_ i_add_term1[19] vdd gnd i_add_term2[19] OR2X2
XNAND2X1_23 vdd _303_ gnd i_add_term2[19] i_add_term1[19] NAND2X1
XNAND3X1_9 _303_ vdd gnd _301_ _302_ _304_ NAND3X1
XNOR2X1_10 vdd i_add_term1[19] gnd _298_ i_add_term2[19] NOR2X1
XAND2X2_10 vdd gnd i_add_term2[19] i_add_term1[19] _299_ AND2X2
XOAI21X1_24 gnd vdd _298_ _299_ _300_ _24_[3] OAI21X1
XNAND2X1_24 vdd _22_[3] gnd _300_ _304_ NAND2X1
XOAI21X1_25 gnd vdd _301_ _298_ _20_ _303_ OAI21X1
XINVX1_15 _24_[1] _308_ vdd gnd INVX1
XOR2X2_10 _309_ i_add_term1[17] vdd gnd i_add_term2[17] OR2X2
XNAND2X1_25 vdd _310_ gnd i_add_term2[17] i_add_term1[17] NAND2X1
XNAND3X1_10 _310_ vdd gnd _308_ _309_ _311_ NAND3X1
XNOR2X1_11 vdd i_add_term1[17] gnd _305_ i_add_term2[17] NOR2X1
XAND2X2_11 vdd gnd i_add_term2[17] i_add_term1[17] _306_ AND2X2
XOAI21X1_26 gnd vdd _305_ _306_ _307_ _24_[1] OAI21X1
XNAND2X1_26 vdd _22_[1] gnd _307_ _311_ NAND2X1
XOAI21X1_27 gnd vdd _308_ _305_ _24_[2] _310_ OAI21X1
XINVX1_16 _24_[2] _315_ vdd gnd INVX1
XOR2X2_11 _316_ i_add_term1[18] vdd gnd i_add_term2[18] OR2X2
XNAND2X1_27 vdd _317_ gnd i_add_term2[18] i_add_term1[18] NAND2X1
XNAND3X1_11 _317_ vdd gnd _315_ _316_ _318_ NAND3X1
XNOR2X1_12 vdd i_add_term1[18] gnd _312_ i_add_term2[18] NOR2X1
XAND2X2_12 vdd gnd i_add_term2[18] i_add_term1[18] _313_ AND2X2
XOAI21X1_28 gnd vdd _312_ _313_ _314_ _24_[2] OAI21X1
XNAND2X1_28 vdd _22_[2] gnd _314_ _318_ NAND2X1
XOAI21X1_29 gnd vdd _315_ _312_ _24_[3] _317_ OAI21X1
XINVX1_17 _25_ _319_ vdd gnd INVX1
XNAND2X1_29 vdd _320_ gnd _26_ w_cout[4] NAND2X1
XOAI21X1_30 gnd vdd w_cout[4] _319_ w_cout[5] _320_ OAI21X1
XINVX1_18 _27_[0] _321_ vdd gnd INVX1
XNAND2X1_30 vdd _322_ gnd _28_[0] w_cout[4] NAND2X1
XOAI21X1_31 gnd vdd w_cout[4] _321_ _0_[20] _322_ OAI21X1
XINVX1_19 _27_[1] _323_ vdd gnd INVX1
XNAND2X1_31 vdd _324_ gnd w_cout[4] _28_[1] NAND2X1
XOAI21X1_32 gnd vdd w_cout[4] _323_ _0_[21] _324_ OAI21X1
XINVX1_20 _27_[2] _325_ vdd gnd INVX1
XNAND2X1_32 vdd _326_ gnd w_cout[4] _28_[2] NAND2X1
XOAI21X1_33 gnd vdd w_cout[4] _325_ _0_[22] _326_ OAI21X1
XINVX1_21 _27_[3] _327_ vdd gnd INVX1
XNAND2X1_33 vdd _328_ gnd w_cout[4] _28_[3] NAND2X1
XOAI21X1_34 gnd vdd w_cout[4] _327_ _0_[23] _328_ OAI21X1
XINVX1_22 gnd _332_ vdd gnd INVX1
XOR2X2_12 _333_ i_add_term1[20] vdd gnd i_add_term2[20] OR2X2
XNAND2X1_34 vdd _334_ gnd i_add_term2[20] i_add_term1[20] NAND2X1
XNAND3X1_12 _334_ vdd gnd _332_ _333_ _335_ NAND3X1
XNOR2X1_13 vdd i_add_term1[20] gnd _329_ i_add_term2[20] NOR2X1
XAND2X2_13 vdd gnd i_add_term2[20] i_add_term1[20] _330_ AND2X2
XOAI21X1_35 gnd vdd _329_ _330_ _331_ gnd OAI21X1
XNAND2X1_35 vdd _27_[0] gnd _331_ _335_ NAND2X1
XOAI21X1_36 gnd vdd _332_ _329_ _29_[1] _334_ OAI21X1
XINVX1_23 _29_[3] _339_ vdd gnd INVX1
XOR2X2_13 _340_ i_add_term1[23] vdd gnd i_add_term2[23] OR2X2
XNAND2X1_36 vdd _341_ gnd i_add_term2[23] i_add_term1[23] NAND2X1
XNAND3X1_13 _341_ vdd gnd _339_ _340_ _342_ NAND3X1
XNOR2X1_14 vdd i_add_term1[23] gnd _336_ i_add_term2[23] NOR2X1
XAND2X2_14 vdd gnd i_add_term2[23] i_add_term1[23] _337_ AND2X2
XOAI21X1_37 gnd vdd _336_ _337_ _338_ _29_[3] OAI21X1
XNAND2X1_37 vdd _27_[3] gnd _338_ _342_ NAND2X1
XOAI21X1_38 gnd vdd _339_ _336_ _25_ _341_ OAI21X1
XINVX1_24 _29_[1] _346_ vdd gnd INVX1
XOR2X2_14 _347_ i_add_term1[21] vdd gnd i_add_term2[21] OR2X2
XNAND2X1_38 vdd _348_ gnd i_add_term2[21] i_add_term1[21] NAND2X1
XNAND3X1_14 _348_ vdd gnd _346_ _347_ _349_ NAND3X1
XNOR2X1_15 vdd i_add_term1[21] gnd _343_ i_add_term2[21] NOR2X1
XAND2X2_15 vdd gnd i_add_term2[21] i_add_term1[21] _344_ AND2X2
XOAI21X1_39 gnd vdd _343_ _344_ _345_ _29_[1] OAI21X1
XNAND2X1_39 vdd _27_[1] gnd _345_ _349_ NAND2X1
XOAI21X1_40 gnd vdd _346_ _343_ _29_[2] _348_ OAI21X1
XINVX1_25 _29_[2] _353_ vdd gnd INVX1
XOR2X2_15 _354_ i_add_term1[22] vdd gnd i_add_term2[22] OR2X2
XNAND2X1_40 vdd _355_ gnd i_add_term2[22] i_add_term1[22] NAND2X1
XNAND3X1_15 _355_ vdd gnd _353_ _354_ _356_ NAND3X1
XNOR2X1_16 vdd i_add_term1[22] gnd _350_ i_add_term2[22] NOR2X1
XAND2X2_16 vdd gnd i_add_term2[22] i_add_term1[22] _351_ AND2X2
XOAI21X1_41 gnd vdd _350_ _351_ _352_ _29_[2] OAI21X1
XNAND2X1_41 vdd _27_[2] gnd _352_ _356_ NAND2X1
XOAI21X1_42 gnd vdd _353_ _350_ _29_[3] _355_ OAI21X1
XINVX1_26 vdd _360_ vdd gnd INVX1
XOR2X2_16 _361_ i_add_term1[20] vdd gnd i_add_term2[20] OR2X2
XNAND2X1_42 vdd _362_ gnd i_add_term2[20] i_add_term1[20] NAND2X1
XNAND3X1_16 _362_ vdd gnd _360_ _361_ _363_ NAND3X1
XNOR2X1_17 vdd i_add_term1[20] gnd _357_ i_add_term2[20] NOR2X1
XAND2X2_17 vdd gnd i_add_term2[20] i_add_term1[20] _358_ AND2X2
XOAI21X1_43 gnd vdd _357_ _358_ _359_ vdd OAI21X1
XNAND2X1_43 vdd _28_[0] gnd _359_ _363_ NAND2X1
XOAI21X1_44 gnd vdd _360_ _357_ _30_[1] _362_ OAI21X1
XINVX1_27 _30_[3] _367_ vdd gnd INVX1
XOR2X2_17 _368_ i_add_term1[23] vdd gnd i_add_term2[23] OR2X2
XNAND2X1_44 vdd _369_ gnd i_add_term2[23] i_add_term1[23] NAND2X1
XNAND3X1_17 _369_ vdd gnd _367_ _368_ _370_ NAND3X1
XNOR2X1_18 vdd i_add_term1[23] gnd _364_ i_add_term2[23] NOR2X1
XAND2X2_18 vdd gnd i_add_term2[23] i_add_term1[23] _365_ AND2X2
XOAI21X1_45 gnd vdd _364_ _365_ _366_ _30_[3] OAI21X1
XNAND2X1_45 vdd _28_[3] gnd _366_ _370_ NAND2X1
XOAI21X1_46 gnd vdd _367_ _364_ _26_ _369_ OAI21X1
XINVX1_28 _30_[1] _374_ vdd gnd INVX1
XOR2X2_18 _375_ i_add_term1[21] vdd gnd i_add_term2[21] OR2X2
XNAND2X1_46 vdd _376_ gnd i_add_term2[21] i_add_term1[21] NAND2X1
XNAND3X1_18 _376_ vdd gnd _374_ _375_ _377_ NAND3X1
XNOR2X1_19 vdd i_add_term1[21] gnd _371_ i_add_term2[21] NOR2X1
XAND2X2_19 vdd gnd i_add_term2[21] i_add_term1[21] _372_ AND2X2
XOAI21X1_47 gnd vdd _371_ _372_ _373_ _30_[1] OAI21X1
XNAND2X1_47 vdd _28_[1] gnd _373_ _377_ NAND2X1
XOAI21X1_48 gnd vdd _374_ _371_ _30_[2] _376_ OAI21X1
XINVX1_29 _30_[2] _381_ vdd gnd INVX1
XOR2X2_19 _382_ i_add_term1[22] vdd gnd i_add_term2[22] OR2X2
XNAND2X1_48 vdd _383_ gnd i_add_term2[22] i_add_term1[22] NAND2X1
XNAND3X1_19 _383_ vdd gnd _381_ _382_ _384_ NAND3X1
XNOR2X1_20 vdd i_add_term1[22] gnd _378_ i_add_term2[22] NOR2X1
XAND2X2_20 vdd gnd i_add_term2[22] i_add_term1[22] _379_ AND2X2
XOAI21X1_49 gnd vdd _378_ _379_ _380_ _30_[2] OAI21X1
XNAND2X1_49 vdd _28_[2] gnd _380_ _384_ NAND2X1
XOAI21X1_50 gnd vdd _381_ _378_ _30_[3] _383_ OAI21X1
XINVX1_30 _31_ _385_ vdd gnd INVX1
XNAND2X1_50 vdd _386_ gnd _32_ w_cout[5] NAND2X1
XOAI21X1_51 gnd vdd w_cout[5] _385_ w_cout[6] _386_ OAI21X1
XINVX1_31 _33_[0] _387_ vdd gnd INVX1
XNAND2X1_51 vdd _388_ gnd _34_[0] w_cout[5] NAND2X1
XOAI21X1_52 gnd vdd w_cout[5] _387_ _0_[24] _388_ OAI21X1
XINVX1_32 _33_[1] _389_ vdd gnd INVX1
XNAND2X1_52 vdd _390_ gnd w_cout[5] _34_[1] NAND2X1
XOAI21X1_53 gnd vdd w_cout[5] _389_ _0_[25] _390_ OAI21X1
XINVX1_33 _33_[2] _391_ vdd gnd INVX1
XNAND2X1_53 vdd _392_ gnd w_cout[5] _34_[2] NAND2X1
XOAI21X1_54 gnd vdd w_cout[5] _391_ _0_[26] _392_ OAI21X1
XINVX1_34 _33_[3] _393_ vdd gnd INVX1
XNAND2X1_54 vdd _394_ gnd w_cout[5] _34_[3] NAND2X1
XOAI21X1_55 gnd vdd w_cout[5] _393_ _0_[27] _394_ OAI21X1
XINVX1_35 gnd _398_ vdd gnd INVX1
XOR2X2_20 _399_ i_add_term1[24] vdd gnd i_add_term2[24] OR2X2
XNAND2X1_55 vdd _400_ gnd i_add_term2[24] i_add_term1[24] NAND2X1
XNAND3X1_20 _400_ vdd gnd _398_ _399_ _401_ NAND3X1
XNOR2X1_21 vdd i_add_term1[24] gnd _395_ i_add_term2[24] NOR2X1
XAND2X2_21 vdd gnd i_add_term2[24] i_add_term1[24] _396_ AND2X2
XOAI21X1_56 gnd vdd _395_ _396_ _397_ gnd OAI21X1
XNAND2X1_56 vdd _33_[0] gnd _397_ _401_ NAND2X1
XOAI21X1_57 gnd vdd _398_ _395_ _35_[1] _400_ OAI21X1
XINVX1_36 _35_[3] _405_ vdd gnd INVX1
XOR2X2_21 _406_ i_add_term1[27] vdd gnd i_add_term2[27] OR2X2
XNAND2X1_57 vdd _407_ gnd i_add_term2[27] i_add_term1[27] NAND2X1
XNAND3X1_21 _407_ vdd gnd _405_ _406_ _408_ NAND3X1
XNOR2X1_22 vdd i_add_term1[27] gnd _402_ i_add_term2[27] NOR2X1
XAND2X2_22 vdd gnd i_add_term2[27] i_add_term1[27] _403_ AND2X2
XOAI21X1_58 gnd vdd _402_ _403_ _404_ _35_[3] OAI21X1
XNAND2X1_58 vdd _33_[3] gnd _404_ _408_ NAND2X1
XOAI21X1_59 gnd vdd _405_ _402_ _31_ _407_ OAI21X1
XINVX1_37 _35_[1] _412_ vdd gnd INVX1
XOR2X2_22 _413_ i_add_term1[25] vdd gnd i_add_term2[25] OR2X2
XNAND2X1_59 vdd _414_ gnd i_add_term2[25] i_add_term1[25] NAND2X1
XNAND3X1_22 _414_ vdd gnd _412_ _413_ _415_ NAND3X1
XNOR2X1_23 vdd i_add_term1[25] gnd _409_ i_add_term2[25] NOR2X1
XAND2X2_23 vdd gnd i_add_term2[25] i_add_term1[25] _410_ AND2X2
XOAI21X1_60 gnd vdd _409_ _410_ _411_ _35_[1] OAI21X1
XNAND2X1_60 vdd _33_[1] gnd _411_ _415_ NAND2X1
XOAI21X1_61 gnd vdd _412_ _409_ _35_[2] _414_ OAI21X1
XINVX1_38 _35_[2] _419_ vdd gnd INVX1
XOR2X2_23 _420_ i_add_term1[26] vdd gnd i_add_term2[26] OR2X2
XNAND2X1_61 vdd _421_ gnd i_add_term2[26] i_add_term1[26] NAND2X1
XNAND3X1_23 _421_ vdd gnd _419_ _420_ _422_ NAND3X1
XNOR2X1_24 vdd i_add_term1[26] gnd _416_ i_add_term2[26] NOR2X1
XAND2X2_24 vdd gnd i_add_term2[26] i_add_term1[26] _417_ AND2X2
XOAI21X1_62 gnd vdd _416_ _417_ _418_ _35_[2] OAI21X1
XNAND2X1_62 vdd _33_[2] gnd _418_ _422_ NAND2X1
XOAI21X1_63 gnd vdd _419_ _416_ _35_[3] _421_ OAI21X1
XINVX1_39 vdd _426_ vdd gnd INVX1
XOR2X2_24 _427_ i_add_term1[24] vdd gnd i_add_term2[24] OR2X2
XNAND2X1_63 vdd _428_ gnd i_add_term2[24] i_add_term1[24] NAND2X1
XNAND3X1_24 _428_ vdd gnd _426_ _427_ _429_ NAND3X1
XNOR2X1_25 vdd i_add_term1[24] gnd _423_ i_add_term2[24] NOR2X1
XAND2X2_25 vdd gnd i_add_term2[24] i_add_term1[24] _424_ AND2X2
XOAI21X1_64 gnd vdd _423_ _424_ _425_ vdd OAI21X1
XNAND2X1_64 vdd _34_[0] gnd _425_ _429_ NAND2X1
XOAI21X1_65 gnd vdd _426_ _423_ _36_[1] _428_ OAI21X1
XINVX1_40 _36_[3] _433_ vdd gnd INVX1
XOR2X2_25 _434_ i_add_term1[27] vdd gnd i_add_term2[27] OR2X2
XNAND2X1_65 vdd _435_ gnd i_add_term2[27] i_add_term1[27] NAND2X1
XNAND3X1_25 _435_ vdd gnd _433_ _434_ _436_ NAND3X1
XNOR2X1_26 vdd i_add_term1[27] gnd _430_ i_add_term2[27] NOR2X1
XAND2X2_26 vdd gnd i_add_term2[27] i_add_term1[27] _431_ AND2X2
XOAI21X1_66 gnd vdd _430_ _431_ _432_ _36_[3] OAI21X1
XNAND2X1_66 vdd _34_[3] gnd _432_ _436_ NAND2X1
XOAI21X1_67 gnd vdd _433_ _430_ _32_ _435_ OAI21X1
XINVX1_41 _36_[1] _440_ vdd gnd INVX1
XOR2X2_26 _441_ i_add_term1[25] vdd gnd i_add_term2[25] OR2X2
XNAND2X1_67 vdd _442_ gnd i_add_term2[25] i_add_term1[25] NAND2X1
XNAND3X1_26 _442_ vdd gnd _440_ _441_ _443_ NAND3X1
XNOR2X1_27 vdd i_add_term1[25] gnd _437_ i_add_term2[25] NOR2X1
XAND2X2_27 vdd gnd i_add_term2[25] i_add_term1[25] _438_ AND2X2
XOAI21X1_68 gnd vdd _437_ _438_ _439_ _36_[1] OAI21X1
XNAND2X1_68 vdd _34_[1] gnd _439_ _443_ NAND2X1
XOAI21X1_69 gnd vdd _440_ _437_ _36_[2] _442_ OAI21X1
XINVX1_42 _36_[2] _447_ vdd gnd INVX1
XOR2X2_27 _448_ i_add_term1[26] vdd gnd i_add_term2[26] OR2X2
XNAND2X1_69 vdd _449_ gnd i_add_term2[26] i_add_term1[26] NAND2X1
XNAND3X1_27 _449_ vdd gnd _447_ _448_ _450_ NAND3X1
XNOR2X1_28 vdd i_add_term1[26] gnd _444_ i_add_term2[26] NOR2X1
XAND2X2_28 vdd gnd i_add_term2[26] i_add_term1[26] _445_ AND2X2
XOAI21X1_70 gnd vdd _444_ _445_ _446_ _36_[2] OAI21X1
XNAND2X1_70 vdd _34_[2] gnd _446_ _450_ NAND2X1
XOAI21X1_71 gnd vdd _447_ _444_ _36_[3] _449_ OAI21X1
XINVX1_43 _37_ _451_ vdd gnd INVX1
XNAND2X1_71 vdd _452_ gnd _38_ w_cout[6] NAND2X1
XOAI21X1_72 gnd vdd w_cout[6] _451_ w_cout[7] _452_ OAI21X1
XINVX1_44 _39_[0] _453_ vdd gnd INVX1
XNAND2X1_72 vdd _454_ gnd _40_[0] w_cout[6] NAND2X1
XOAI21X1_73 gnd vdd w_cout[6] _453_ _0_[28] _454_ OAI21X1
XINVX1_45 _39_[1] _455_ vdd gnd INVX1
XNAND2X1_73 vdd _456_ gnd w_cout[6] _40_[1] NAND2X1
XOAI21X1_74 gnd vdd w_cout[6] _455_ _0_[29] _456_ OAI21X1
XINVX1_46 _39_[2] _457_ vdd gnd INVX1
XNAND2X1_74 vdd _458_ gnd w_cout[6] _40_[2] NAND2X1
XOAI21X1_75 gnd vdd w_cout[6] _457_ _0_[30] _458_ OAI21X1
XINVX1_47 _39_[3] _459_ vdd gnd INVX1
XNAND2X1_75 vdd _460_ gnd w_cout[6] _40_[3] NAND2X1
XOAI21X1_76 gnd vdd w_cout[6] _459_ _0_[31] _460_ OAI21X1
XINVX1_48 gnd _464_ vdd gnd INVX1
XOR2X2_28 _465_ i_add_term1[28] vdd gnd i_add_term2[28] OR2X2
XNAND2X1_76 vdd _466_ gnd i_add_term2[28] i_add_term1[28] NAND2X1
XNAND3X1_28 _466_ vdd gnd _464_ _465_ _467_ NAND3X1
XNOR2X1_29 vdd i_add_term1[28] gnd _461_ i_add_term2[28] NOR2X1
XAND2X2_29 vdd gnd i_add_term2[28] i_add_term1[28] _462_ AND2X2
XOAI21X1_77 gnd vdd _461_ _462_ _463_ gnd OAI21X1
XNAND2X1_77 vdd _39_[0] gnd _463_ _467_ NAND2X1
XOAI21X1_78 gnd vdd _464_ _461_ _41_[1] _466_ OAI21X1
XINVX1_49 _41_[3] _471_ vdd gnd INVX1
XOR2X2_29 _472_ i_add_term1[31] vdd gnd i_add_term2[31] OR2X2
XNAND2X1_78 vdd _473_ gnd i_add_term2[31] i_add_term1[31] NAND2X1
XNAND3X1_29 _473_ vdd gnd _471_ _472_ _474_ NAND3X1
XNOR2X1_30 vdd i_add_term1[31] gnd _468_ i_add_term2[31] NOR2X1
XAND2X2_30 vdd gnd i_add_term2[31] i_add_term1[31] _469_ AND2X2
XOAI21X1_79 gnd vdd _468_ _469_ _470_ _41_[3] OAI21X1
XNAND2X1_79 vdd _39_[3] gnd _470_ _474_ NAND2X1
XOAI21X1_80 gnd vdd _471_ _468_ _37_ _473_ OAI21X1
XINVX1_50 _41_[1] _478_ vdd gnd INVX1
XOR2X2_30 _479_ i_add_term1[29] vdd gnd i_add_term2[29] OR2X2
XNAND2X1_80 vdd _480_ gnd i_add_term2[29] i_add_term1[29] NAND2X1
XNAND3X1_30 _480_ vdd gnd _478_ _479_ _481_ NAND3X1
XNOR2X1_31 vdd i_add_term1[29] gnd _475_ i_add_term2[29] NOR2X1
XAND2X2_31 vdd gnd i_add_term2[29] i_add_term1[29] _476_ AND2X2
XOAI21X1_81 gnd vdd _475_ _476_ _477_ _41_[1] OAI21X1
XNAND2X1_81 vdd _39_[1] gnd _477_ _481_ NAND2X1
XOAI21X1_82 gnd vdd _478_ _475_ _41_[2] _480_ OAI21X1
XINVX1_51 _41_[2] _485_ vdd gnd INVX1
XOR2X2_31 _486_ i_add_term1[30] vdd gnd i_add_term2[30] OR2X2
XNAND2X1_82 vdd _487_ gnd i_add_term2[30] i_add_term1[30] NAND2X1
XNAND3X1_31 _487_ vdd gnd _485_ _486_ _488_ NAND3X1
XNOR2X1_32 vdd i_add_term1[30] gnd _482_ i_add_term2[30] NOR2X1
XAND2X2_32 vdd gnd i_add_term2[30] i_add_term1[30] _483_ AND2X2
XOAI21X1_83 gnd vdd _482_ _483_ _484_ _41_[2] OAI21X1
XNAND2X1_83 vdd _39_[2] gnd _484_ _488_ NAND2X1
XOAI21X1_84 gnd vdd _485_ _482_ _41_[3] _487_ OAI21X1
XINVX1_52 vdd _492_ vdd gnd INVX1
XOR2X2_32 _493_ i_add_term1[28] vdd gnd i_add_term2[28] OR2X2
XNAND2X1_84 vdd _494_ gnd i_add_term2[28] i_add_term1[28] NAND2X1
XNAND3X1_32 _494_ vdd gnd _492_ _493_ _495_ NAND3X1
XNOR2X1_33 vdd i_add_term1[28] gnd _489_ i_add_term2[28] NOR2X1
XAND2X2_33 vdd gnd i_add_term2[28] i_add_term1[28] _490_ AND2X2
XOAI21X1_85 gnd vdd _489_ _490_ _491_ vdd OAI21X1
XNAND2X1_85 vdd _40_[0] gnd _491_ _495_ NAND2X1
XOAI21X1_86 gnd vdd _492_ _489_ _42_[1] _494_ OAI21X1
XINVX1_53 _42_[3] _499_ vdd gnd INVX1
XOR2X2_33 _500_ i_add_term1[31] vdd gnd i_add_term2[31] OR2X2
XNAND2X1_86 vdd _501_ gnd i_add_term2[31] i_add_term1[31] NAND2X1
XNAND3X1_33 _501_ vdd gnd _499_ _500_ _502_ NAND3X1
XNOR2X1_34 vdd i_add_term1[31] gnd _496_ i_add_term2[31] NOR2X1
XAND2X2_34 vdd gnd i_add_term2[31] i_add_term1[31] _497_ AND2X2
XOAI21X1_87 gnd vdd _496_ _497_ _498_ _42_[3] OAI21X1
XNAND2X1_87 vdd _40_[3] gnd _498_ _502_ NAND2X1
XOAI21X1_88 gnd vdd _499_ _496_ _38_ _501_ OAI21X1
XINVX1_54 _42_[1] _506_ vdd gnd INVX1
XOR2X2_34 _507_ i_add_term1[29] vdd gnd i_add_term2[29] OR2X2
XNAND2X1_88 vdd _508_ gnd i_add_term2[29] i_add_term1[29] NAND2X1
XNAND3X1_34 _508_ vdd gnd _506_ _507_ _509_ NAND3X1
XNOR2X1_35 vdd i_add_term1[29] gnd _503_ i_add_term2[29] NOR2X1
XAND2X2_35 vdd gnd i_add_term2[29] i_add_term1[29] _504_ AND2X2
XOAI21X1_89 gnd vdd _503_ _504_ _505_ _42_[1] OAI21X1
XNAND2X1_89 vdd _40_[1] gnd _505_ _509_ NAND2X1
XOAI21X1_90 gnd vdd _506_ _503_ _42_[2] _508_ OAI21X1
XINVX1_55 _42_[2] _513_ vdd gnd INVX1
XOR2X2_35 _514_ i_add_term1[30] vdd gnd i_add_term2[30] OR2X2
XNAND2X1_90 vdd _515_ gnd i_add_term2[30] i_add_term1[30] NAND2X1
XNAND3X1_35 _515_ vdd gnd _513_ _514_ _516_ NAND3X1
XNOR2X1_36 vdd i_add_term1[30] gnd _510_ i_add_term2[30] NOR2X1
XAND2X2_36 vdd gnd i_add_term2[30] i_add_term1[30] _511_ AND2X2
XOAI21X1_91 gnd vdd _510_ _511_ _512_ _42_[2] OAI21X1
XNAND2X1_91 vdd _40_[2] gnd _512_ _516_ NAND2X1
XOAI21X1_92 gnd vdd _513_ _510_ _42_[3] _515_ OAI21X1
XINVX1_56 _43_ _517_ vdd gnd INVX1
XNAND2X1_92 vdd _518_ gnd _44_ w_cout[7] NAND2X1
XOAI21X1_93 gnd vdd w_cout[7] _517_ w_cout[8] _518_ OAI21X1
XINVX1_57 _45_[0] _519_ vdd gnd INVX1
XNAND2X1_93 vdd _520_ gnd _46_[0] w_cout[7] NAND2X1
XOAI21X1_94 gnd vdd w_cout[7] _519_ _0_[32] _520_ OAI21X1
XINVX1_58 _45_[1] _521_ vdd gnd INVX1
XNAND2X1_94 vdd _522_ gnd w_cout[7] _46_[1] NAND2X1
XOAI21X1_95 gnd vdd w_cout[7] _521_ _0_[33] _522_ OAI21X1
XINVX1_59 _45_[2] _523_ vdd gnd INVX1
XNAND2X1_95 vdd _524_ gnd w_cout[7] _46_[2] NAND2X1
XOAI21X1_96 gnd vdd w_cout[7] _523_ _0_[34] _524_ OAI21X1
XINVX1_60 _45_[3] _525_ vdd gnd INVX1
XNAND2X1_96 vdd _526_ gnd w_cout[7] _46_[3] NAND2X1
XOAI21X1_97 gnd vdd w_cout[7] _525_ _0_[35] _526_ OAI21X1
XINVX1_61 gnd _530_ vdd gnd INVX1
XOR2X2_36 _531_ i_add_term1[32] vdd gnd i_add_term2[32] OR2X2
XNAND2X1_97 vdd _532_ gnd i_add_term2[32] i_add_term1[32] NAND2X1
XNAND3X1_36 _532_ vdd gnd _530_ _531_ _533_ NAND3X1
XNOR2X1_37 vdd i_add_term1[32] gnd _527_ i_add_term2[32] NOR2X1
XAND2X2_37 vdd gnd i_add_term2[32] i_add_term1[32] _528_ AND2X2
XOAI21X1_98 gnd vdd _527_ _528_ _529_ gnd OAI21X1
XNAND2X1_98 vdd _45_[0] gnd _529_ _533_ NAND2X1
XOAI21X1_99 gnd vdd _530_ _527_ _47_[1] _532_ OAI21X1
XINVX1_62 _47_[3] _537_ vdd gnd INVX1
XOR2X2_37 _538_ i_add_term1[35] vdd gnd i_add_term2[35] OR2X2
XNAND2X1_99 vdd _539_ gnd i_add_term2[35] i_add_term1[35] NAND2X1
XNAND3X1_37 _539_ vdd gnd _537_ _538_ _540_ NAND3X1
XNOR2X1_38 vdd i_add_term1[35] gnd _534_ i_add_term2[35] NOR2X1
XAND2X2_38 vdd gnd i_add_term2[35] i_add_term1[35] _535_ AND2X2
XOAI21X1_100 gnd vdd _534_ _535_ _536_ _47_[3] OAI21X1
XNAND2X1_100 vdd _45_[3] gnd _536_ _540_ NAND2X1
XOAI21X1_101 gnd vdd _537_ _534_ _43_ _539_ OAI21X1
XINVX1_63 _47_[1] _544_ vdd gnd INVX1
XOR2X2_38 _545_ i_add_term1[33] vdd gnd i_add_term2[33] OR2X2
XNAND2X1_101 vdd _546_ gnd i_add_term2[33] i_add_term1[33] NAND2X1
XNAND3X1_38 _546_ vdd gnd _544_ _545_ _547_ NAND3X1
XNOR2X1_39 vdd i_add_term1[33] gnd _541_ i_add_term2[33] NOR2X1
XAND2X2_39 vdd gnd i_add_term2[33] i_add_term1[33] _542_ AND2X2
XOAI21X1_102 gnd vdd _541_ _542_ _543_ _47_[1] OAI21X1
XNAND2X1_102 vdd _45_[1] gnd _543_ _547_ NAND2X1
XOAI21X1_103 gnd vdd _544_ _541_ _47_[2] _546_ OAI21X1
XINVX1_64 _47_[2] _551_ vdd gnd INVX1
XOR2X2_39 _552_ i_add_term1[34] vdd gnd i_add_term2[34] OR2X2
XNAND2X1_103 vdd _553_ gnd i_add_term2[34] i_add_term1[34] NAND2X1
XNAND3X1_39 _553_ vdd gnd _551_ _552_ _554_ NAND3X1
XNOR2X1_40 vdd i_add_term1[34] gnd _548_ i_add_term2[34] NOR2X1
XAND2X2_40 vdd gnd i_add_term2[34] i_add_term1[34] _549_ AND2X2
XOAI21X1_104 gnd vdd _548_ _549_ _550_ _47_[2] OAI21X1
XNAND2X1_104 vdd _45_[2] gnd _550_ _554_ NAND2X1
XOAI21X1_105 gnd vdd _551_ _548_ _47_[3] _553_ OAI21X1
XINVX1_65 vdd _558_ vdd gnd INVX1
XOR2X2_40 _559_ i_add_term1[32] vdd gnd i_add_term2[32] OR2X2
XNAND2X1_105 vdd _560_ gnd i_add_term2[32] i_add_term1[32] NAND2X1
XNAND3X1_40 _560_ vdd gnd _558_ _559_ _561_ NAND3X1
XNOR2X1_41 vdd i_add_term1[32] gnd _555_ i_add_term2[32] NOR2X1
XAND2X2_41 vdd gnd i_add_term2[32] i_add_term1[32] _556_ AND2X2
XOAI21X1_106 gnd vdd _555_ _556_ _557_ vdd OAI21X1
XNAND2X1_106 vdd _46_[0] gnd _557_ _561_ NAND2X1
XOAI21X1_107 gnd vdd _558_ _555_ _48_[1] _560_ OAI21X1
XINVX1_66 _48_[3] _565_ vdd gnd INVX1
XOR2X2_41 _566_ i_add_term1[35] vdd gnd i_add_term2[35] OR2X2
XNAND2X1_107 vdd _567_ gnd i_add_term2[35] i_add_term1[35] NAND2X1
XNAND3X1_41 _567_ vdd gnd _565_ _566_ _568_ NAND3X1
XNOR2X1_42 vdd i_add_term1[35] gnd _562_ i_add_term2[35] NOR2X1
XAND2X2_42 vdd gnd i_add_term2[35] i_add_term1[35] _563_ AND2X2
XOAI21X1_108 gnd vdd _562_ _563_ _564_ _48_[3] OAI21X1
XNAND2X1_108 vdd _46_[3] gnd _564_ _568_ NAND2X1
XOAI21X1_109 gnd vdd _565_ _562_ _44_ _567_ OAI21X1
XINVX1_67 _48_[1] _572_ vdd gnd INVX1
XOR2X2_42 _573_ i_add_term1[33] vdd gnd i_add_term2[33] OR2X2
XNAND2X1_109 vdd _574_ gnd i_add_term2[33] i_add_term1[33] NAND2X1
XNAND3X1_42 _574_ vdd gnd _572_ _573_ _575_ NAND3X1
XNOR2X1_43 vdd i_add_term1[33] gnd _569_ i_add_term2[33] NOR2X1
XAND2X2_43 vdd gnd i_add_term2[33] i_add_term1[33] _570_ AND2X2
XOAI21X1_110 gnd vdd _569_ _570_ _571_ _48_[1] OAI21X1
XNAND2X1_110 vdd _46_[1] gnd _571_ _575_ NAND2X1
XOAI21X1_111 gnd vdd _572_ _569_ _48_[2] _574_ OAI21X1
XINVX1_68 _48_[2] _579_ vdd gnd INVX1
XOR2X2_43 _580_ i_add_term1[34] vdd gnd i_add_term2[34] OR2X2
XNAND2X1_111 vdd _581_ gnd i_add_term2[34] i_add_term1[34] NAND2X1
XNAND3X1_43 _581_ vdd gnd _579_ _580_ _582_ NAND3X1
XNOR2X1_44 vdd i_add_term1[34] gnd _576_ i_add_term2[34] NOR2X1
XAND2X2_44 vdd gnd i_add_term2[34] i_add_term1[34] _577_ AND2X2
XOAI21X1_112 gnd vdd _576_ _577_ _578_ _48_[2] OAI21X1
XNAND2X1_112 vdd _46_[2] gnd _578_ _582_ NAND2X1
XOAI21X1_113 gnd vdd _579_ _576_ _48_[3] _581_ OAI21X1
XINVX1_69 _49_ _583_ vdd gnd INVX1
XNAND2X1_113 vdd _584_ gnd _50_ w_cout[8] NAND2X1
XOAI21X1_114 gnd vdd w_cout[8] _583_ csa_inst.cin _584_ OAI21X1
XINVX1_70 _51_[0] _585_ vdd gnd INVX1
XNAND2X1_114 vdd _586_ gnd _52_[0] w_cout[8] NAND2X1
XOAI21X1_115 gnd vdd w_cout[8] _585_ _0_[36] _586_ OAI21X1
XINVX1_71 _51_[1] _587_ vdd gnd INVX1
XNAND2X1_115 vdd _588_ gnd w_cout[8] _52_[1] NAND2X1
XOAI21X1_116 gnd vdd w_cout[8] _587_ _0_[37] _588_ OAI21X1
XINVX1_72 _51_[2] _589_ vdd gnd INVX1
XNAND2X1_116 vdd _590_ gnd w_cout[8] _52_[2] NAND2X1
XOAI21X1_117 gnd vdd w_cout[8] _589_ _0_[38] _590_ OAI21X1
XINVX1_73 _51_[3] _591_ vdd gnd INVX1
XNAND2X1_117 vdd _592_ gnd w_cout[8] _52_[3] NAND2X1
XOAI21X1_118 gnd vdd w_cout[8] _591_ _0_[39] _592_ OAI21X1
XINVX1_74 gnd _596_ vdd gnd INVX1
XOR2X2_44 _597_ i_add_term1[36] vdd gnd i_add_term2[36] OR2X2
XNAND2X1_118 vdd _598_ gnd i_add_term2[36] i_add_term1[36] NAND2X1
XNAND3X1_44 _598_ vdd gnd _596_ _597_ _599_ NAND3X1
XNOR2X1_45 vdd i_add_term1[36] gnd _593_ i_add_term2[36] NOR2X1
XAND2X2_45 vdd gnd i_add_term2[36] i_add_term1[36] _594_ AND2X2
XOAI21X1_119 gnd vdd _593_ _594_ _595_ gnd OAI21X1
XNAND2X1_119 vdd _51_[0] gnd _595_ _599_ NAND2X1
XOAI21X1_120 gnd vdd _596_ _593_ _53_[1] _598_ OAI21X1
XINVX1_75 _53_[3] _603_ vdd gnd INVX1
XOR2X2_45 _604_ i_add_term1[39] vdd gnd i_add_term2[39] OR2X2
XNAND2X1_120 vdd _605_ gnd i_add_term2[39] i_add_term1[39] NAND2X1
XNAND3X1_45 _605_ vdd gnd _603_ _604_ _606_ NAND3X1
XNOR2X1_46 vdd i_add_term1[39] gnd _600_ i_add_term2[39] NOR2X1
XAND2X2_46 vdd gnd i_add_term2[39] i_add_term1[39] _601_ AND2X2
XOAI21X1_121 gnd vdd _600_ _601_ _602_ _53_[3] OAI21X1
XNAND2X1_121 vdd _51_[3] gnd _602_ _606_ NAND2X1
XOAI21X1_122 gnd vdd _603_ _600_ _49_ _605_ OAI21X1
XINVX1_76 _53_[1] _610_ vdd gnd INVX1
XOR2X2_46 _611_ i_add_term1[37] vdd gnd i_add_term2[37] OR2X2
XNAND2X1_122 vdd _612_ gnd i_add_term2[37] i_add_term1[37] NAND2X1
XNAND3X1_46 _612_ vdd gnd _610_ _611_ _613_ NAND3X1
XNOR2X1_47 vdd i_add_term1[37] gnd _607_ i_add_term2[37] NOR2X1
XAND2X2_47 vdd gnd i_add_term2[37] i_add_term1[37] _608_ AND2X2
XOAI21X1_123 gnd vdd _607_ _608_ _609_ _53_[1] OAI21X1
XNAND2X1_123 vdd _51_[1] gnd _609_ _613_ NAND2X1
XOAI21X1_124 gnd vdd _610_ _607_ _53_[2] _612_ OAI21X1
XINVX1_77 _53_[2] _617_ vdd gnd INVX1
XOR2X2_47 _618_ i_add_term1[38] vdd gnd i_add_term2[38] OR2X2
XNAND2X1_124 vdd _619_ gnd i_add_term2[38] i_add_term1[38] NAND2X1
XNAND3X1_47 _619_ vdd gnd _617_ _618_ _620_ NAND3X1
XNOR2X1_48 vdd i_add_term1[38] gnd _614_ i_add_term2[38] NOR2X1
XAND2X2_48 vdd gnd i_add_term2[38] i_add_term1[38] _615_ AND2X2
XOAI21X1_125 gnd vdd _614_ _615_ _616_ _53_[2] OAI21X1
XNAND2X1_125 vdd _51_[2] gnd _616_ _620_ NAND2X1