* XSpice netlist created from SPICE and liberty sources by spi2xspice.py
*SPICE netlist created from BLIF module csa_57bit by blif2BSpice
.subckt csa_57bit a_vdd a_gnd a_i_add_term1_0_ a_i_add_term1_1_ a_i_add_term1_2_ a_i_add_term1_3_ a_i_add_term1_4_ a_i_add_term1_5_ a_i_add_term1_6_ a_i_add_term1_7_ a_i_add_term1_8_ a_i_add_term1_9_ a_i_add_term1_10_ a_i_add_term1_11_ a_i_add_term1_12_ a_i_add_term1_13_ a_i_add_term1_14_ a_i_add_term1_15_ a_i_add_term1_16_ a_i_add_term1_17_ a_i_add_term1_18_ a_i_add_term1_19_ a_i_add_term1_20_ a_i_add_term1_21_ a_i_add_term1_22_ a_i_add_term1_23_ a_i_add_term1_24_ a_i_add_term1_25_ a_i_add_term1_26_ a_i_add_term1_27_ a_i_add_term1_28_ a_i_add_term1_29_ a_i_add_term1_30_ a_i_add_term1_31_ a_i_add_term1_32_ a_i_add_term1_33_ a_i_add_term1_34_ a_i_add_term1_35_ a_i_add_term1_36_ a_i_add_term1_37_ a_i_add_term1_38_ a_i_add_term1_39_ a_i_add_term1_40_ a_i_add_term1_41_ a_i_add_term1_42_ a_i_add_term1_43_ a_i_add_term1_44_ a_i_add_term1_45_ a_i_add_term1_46_ a_i_add_term1_47_ a_i_add_term1_48_ a_i_add_term1_49_ a_i_add_term1_50_ a_i_add_term1_51_ a_i_add_term1_52_ a_i_add_term1_53_ a_i_add_term1_54_ a_i_add_term1_55_ a_i_add_term1_56_ a_i_add_term2_0_ a_i_add_term2_1_ a_i_add_term2_2_ a_i_add_term2_3_ a_i_add_term2_4_ a_i_add_term2_5_ a_i_add_term2_6_ a_i_add_term2_7_ a_i_add_term2_8_ a_i_add_term2_9_ a_i_add_term2_10_ a_i_add_term2_11_ a_i_add_term2_12_ a_i_add_term2_13_ a_i_add_term2_14_ a_i_add_term2_15_ a_i_add_term2_16_ a_i_add_term2_17_ a_i_add_term2_18_ a_i_add_term2_19_ a_i_add_term2_20_ a_i_add_term2_21_ a_i_add_term2_22_ a_i_add_term2_23_ a_i_add_term2_24_ a_i_add_term2_25_ a_i_add_term2_26_ a_i_add_term2_27_ a_i_add_term2_28_ a_i_add_term2_29_ a_i_add_term2_30_ a_i_add_term2_31_ a_i_add_term2_32_ a_i_add_term2_33_ a_i_add_term2_34_ a_i_add_term2_35_ a_i_add_term2_36_ a_i_add_term2_37_ a_i_add_term2_38_ a_i_add_term2_39_ a_i_add_term2_40_ a_i_add_term2_41_ a_i_add_term2_42_ a_i_add_term2_43_ a_i_add_term2_44_ a_i_add_term2_45_ a_i_add_term2_46_ a_i_add_term2_47_ a_i_add_term2_48_ a_i_add_term2_49_ a_i_add_term2_50_ a_i_add_term2_51_ a_i_add_term2_52_ a_i_add_term2_53_ a_i_add_term2_54_ a_i_add_term2_55_ a_i_add_term2_56_ a_sum_0_ a_sum_1_ a_sum_2_ a_sum_3_ a_sum_4_ a_sum_5_ a_sum_6_ a_sum_7_ a_sum_8_ a_sum_9_ a_sum_10_ a_sum_11_ a_sum_12_ a_sum_13_ a_sum_14_ a_sum_15_ a_sum_16_ a_sum_17_ a_sum_18_ a_sum_19_ a_sum_20_ a_sum_21_ a_sum_22_ a_sum_23_ a_sum_24_ a_sum_25_ a_sum_26_ a_sum_27_ a_sum_28_ a_sum_29_ a_sum_30_ a_sum_31_ a_sum_32_ a_sum_33_ a_sum_34_ a_sum_35_ a_sum_36_ a_sum_37_ a_sum_38_ a_sum_39_ a_sum_40_ a_sum_41_ a_sum_42_ a_sum_43_ a_sum_44_ a_sum_45_ a_sum_46_ a_sum_47_ a_sum_48_ a_sum_49_ a_sum_50_ a_sum_51_ a_sum_52_ a_sum_53_ a_sum_54_ a_sum_55_ a_sum_56_ a_cout
ABUFX2_1 [_0__16_] sum_16_ d_lut_BUFX2
ABUFX2_2 [_0__17_] sum_17_ d_lut_BUFX2
ABUFX2_3 [_0__18_] sum_18_ d_lut_BUFX2
ABUFX2_4 [_0__19_] sum_19_ d_lut_BUFX2
ABUFX2_5 [_0__20_] sum_20_ d_lut_BUFX2
ABUFX2_6 [_0__21_] sum_21_ d_lut_BUFX2
ABUFX2_7 [_0__22_] sum_22_ d_lut_BUFX2
ABUFX2_8 [_0__23_] sum_23_ d_lut_BUFX2
ABUFX2_9 [_0__24_] sum_24_ d_lut_BUFX2
ABUFX2_10 [_0__25_] sum_25_ d_lut_BUFX2
ABUFX2_11 [_0__26_] sum_26_ d_lut_BUFX2
ABUFX2_12 [_0__27_] sum_27_ d_lut_BUFX2
ABUFX2_13 [_0__28_] sum_28_ d_lut_BUFX2
ABUFX2_14 [_0__29_] sum_29_ d_lut_BUFX2
ABUFX2_15 [_0__30_] sum_30_ d_lut_BUFX2
ABUFX2_16 [_0__31_] sum_31_ d_lut_BUFX2
ABUFX2_17 [_0__32_] sum_32_ d_lut_BUFX2
ABUFX2_18 [_0__33_] sum_33_ d_lut_BUFX2
ABUFX2_19 [_0__34_] sum_34_ d_lut_BUFX2
ABUFX2_20 [_0__35_] sum_35_ d_lut_BUFX2
ABUFX2_21 [_0__36_] sum_36_ d_lut_BUFX2
ABUFX2_22 [_0__37_] sum_37_ d_lut_BUFX2
ABUFX2_23 [_0__38_] sum_38_ d_lut_BUFX2
ABUFX2_24 [_0__39_] sum_39_ d_lut_BUFX2
ABUFX2_25 [_0__40_] sum_40_ d_lut_BUFX2
ABUFX2_26 [_0__41_] sum_41_ d_lut_BUFX2
ABUFX2_27 [_0__42_] sum_42_ d_lut_BUFX2
ABUFX2_28 [_0__43_] sum_43_ d_lut_BUFX2
ABUFX2_29 [_0__44_] sum_44_ d_lut_BUFX2
ABUFX2_30 [_0__45_] sum_45_ d_lut_BUFX2
ABUFX2_31 [_0__46_] sum_46_ d_lut_BUFX2
ABUFX2_32 [_0__47_] sum_47_ d_lut_BUFX2
ABUFX2_33 [_0__48_] sum_48_ d_lut_BUFX2
ABUFX2_34 [_0__49_] sum_49_ d_lut_BUFX2
ABUFX2_35 [_0__50_] sum_50_ d_lut_BUFX2
ABUFX2_36 [_0__51_] sum_51_ d_lut_BUFX2
ABUFX2_37 [_0__52_] sum_52_ d_lut_BUFX2
ABUFX2_38 [_0__53_] sum_53_ d_lut_BUFX2
ABUFX2_39 [_0__54_] sum_54_ d_lut_BUFX2
ABUFX2_40 [_0__55_] sum_55_ d_lut_BUFX2
ABUFX2_41 [csa_inst.mux0_sum.y] sum_56_ d_lut_BUFX2
AINVX1_1 [_1_] _79_ d_lut_INVX1
ANAND2X1_1 [_2_ rca_inst.cout] _80_ d_lut_NAND2X1
AOAI21X1_1 [rca_inst.cout _79_ _80_] w_cout_1_ d_lut_OAI21X1
AINVX1_2 [_3__0_] _81_ d_lut_INVX1
ANAND2X1_2 [_4__0_ rca_inst.cout] _82_ d_lut_NAND2X1
AOAI21X1_2 [rca_inst.cout _81_ _82_] _0__4_ d_lut_OAI21X1
AINVX1_3 [_3__1_] _83_ d_lut_INVX1
ANAND2X1_3 [rca_inst.cout _4__1_] _84_ d_lut_NAND2X1
AOAI21X1_3 [rca_inst.cout _83_ _84_] _0__5_ d_lut_OAI21X1
AINVX1_4 [_3__2_] _85_ d_lut_INVX1
ANAND2X1_4 [rca_inst.cout _4__2_] _86_ d_lut_NAND2X1
AOAI21X1_4 [rca_inst.cout _85_ _86_] _0__6_ d_lut_OAI21X1
AINVX1_5 [_3__3_] _87_ d_lut_INVX1
ANAND2X1_5 [rca_inst.cout _4__3_] _88_ d_lut_NAND2X1
AOAI21X1_5 [rca_inst.cout _87_ _88_] _0__7_ d_lut_OAI21X1
AINVX1_6 [gnd] _92_ d_lut_INVX1
AOR2X2_1 [i_add_term2_4_ i_add_term1_4_] _93_ d_lut_OR2X2
ANAND2X1_6 [i_add_term2_4_ i_add_term1_4_] _94_ d_lut_NAND2X1
ANAND3X1_1 [_92_ _94_ _93_] _95_ d_lut_NAND3X1
ANOR2X1_1 [i_add_term2_4_ i_add_term1_4_] _89_ d_lut_NOR2X1
AAND2X2_1 [i_add_term2_4_ i_add_term1_4_] _90_ d_lut_AND2X2
AOAI21X1_6 [_89_ _90_ gnd] _91_ d_lut_OAI21X1
ANAND2X1_7 [_91_ _95_] _3__0_ d_lut_NAND2X1
AOAI21X1_7 [_92_ _89_ _94_] _5__1_ d_lut_OAI21X1
AINVX1_7 [_5__3_] _99_ d_lut_INVX1
AOR2X2_2 [i_add_term2_7_ i_add_term1_7_] _100_ d_lut_OR2X2
ANAND2X1_8 [i_add_term2_7_ i_add_term1_7_] _101_ d_lut_NAND2X1
ANAND3X1_2 [_99_ _101_ _100_] _102_ d_lut_NAND3X1
ANOR2X1_2 [i_add_term2_7_ i_add_term1_7_] _96_ d_lut_NOR2X1
AAND2X2_2 [i_add_term2_7_ i_add_term1_7_] _97_ d_lut_AND2X2
AOAI21X1_8 [_96_ _97_ _5__3_] _98_ d_lut_OAI21X1
ANAND2X1_9 [_98_ _102_] _3__3_ d_lut_NAND2X1
AOAI21X1_9 [_99_ _96_ _101_] _1_ d_lut_OAI21X1
AINVX1_8 [_5__1_] _106_ d_lut_INVX1
AOR2X2_3 [i_add_term2_5_ i_add_term1_5_] _107_ d_lut_OR2X2
ANAND2X1_10 [i_add_term2_5_ i_add_term1_5_] _108_ d_lut_NAND2X1
ANAND3X1_3 [_106_ _108_ _107_] _109_ d_lut_NAND3X1
ANOR2X1_3 [i_add_term2_5_ i_add_term1_5_] _103_ d_lut_NOR2X1
AAND2X2_3 [i_add_term2_5_ i_add_term1_5_] _104_ d_lut_AND2X2
AOAI21X1_10 [_103_ _104_ _5__1_] _105_ d_lut_OAI21X1
ANAND2X1_11 [_105_ _109_] _3__1_ d_lut_NAND2X1
AOAI21X1_11 [_106_ _103_ _108_] _5__2_ d_lut_OAI21X1
AINVX1_9 [_5__2_] _113_ d_lut_INVX1
AOR2X2_4 [i_add_term2_6_ i_add_term1_6_] _114_ d_lut_OR2X2
ANAND2X1_12 [i_add_term2_6_ i_add_term1_6_] _115_ d_lut_NAND2X1
ANAND3X1_4 [_113_ _115_ _114_] _116_ d_lut_NAND3X1
ANOR2X1_4 [i_add_term2_6_ i_add_term1_6_] _110_ d_lut_NOR2X1
AAND2X2_4 [i_add_term2_6_ i_add_term1_6_] _111_ d_lut_AND2X2
AOAI21X1_12 [_110_ _111_ _5__2_] _112_ d_lut_OAI21X1
ANAND2X1_13 [_112_ _116_] _3__2_ d_lut_NAND2X1
AOAI21X1_13 [_113_ _110_ _115_] _5__3_ d_lut_OAI21X1
AINVX1_10 [vdd] _120_ d_lut_INVX1
AOR2X2_5 [i_add_term2_4_ i_add_term1_4_] _121_ d_lut_OR2X2
ANAND2X1_14 [i_add_term2_4_ i_add_term1_4_] _122_ d_lut_NAND2X1
ANAND3X1_5 [_120_ _122_ _121_] _123_ d_lut_NAND3X1
ANOR2X1_5 [i_add_term2_4_ i_add_term1_4_] _117_ d_lut_NOR2X1
AAND2X2_5 [i_add_term2_4_ i_add_term1_4_] _118_ d_lut_AND2X2
AOAI21X1_14 [_117_ _118_ vdd] _119_ d_lut_OAI21X1
ANAND2X1_15 [_119_ _123_] _4__0_ d_lut_NAND2X1
AOAI21X1_15 [_120_ _117_ _122_] _6__1_ d_lut_OAI21X1
AINVX1_11 [_6__3_] _127_ d_lut_INVX1
AOR2X2_6 [i_add_term2_7_ i_add_term1_7_] _128_ d_lut_OR2X2
ANAND2X1_16 [i_add_term2_7_ i_add_term1_7_] _129_ d_lut_NAND2X1
ANAND3X1_6 [_127_ _129_ _128_] _130_ d_lut_NAND3X1
ANOR2X1_6 [i_add_term2_7_ i_add_term1_7_] _124_ d_lut_NOR2X1
AAND2X2_6 [i_add_term2_7_ i_add_term1_7_] _125_ d_lut_AND2X2
AOAI21X1_16 [_124_ _125_ _6__3_] _126_ d_lut_OAI21X1
ANAND2X1_17 [_126_ _130_] _4__3_ d_lut_NAND2X1
AOAI21X1_17 [_127_ _124_ _129_] _2_ d_lut_OAI21X1
AINVX1_12 [_6__1_] _134_ d_lut_INVX1
AOR2X2_7 [i_add_term2_5_ i_add_term1_5_] _135_ d_lut_OR2X2
ANAND2X1_18 [i_add_term2_5_ i_add_term1_5_] _136_ d_lut_NAND2X1
ANAND3X1_7 [_134_ _136_ _135_] _137_ d_lut_NAND3X1
ANOR2X1_7 [i_add_term2_5_ i_add_term1_5_] _131_ d_lut_NOR2X1
AAND2X2_7 [i_add_term2_5_ i_add_term1_5_] _132_ d_lut_AND2X2
AOAI21X1_18 [_131_ _132_ _6__1_] _133_ d_lut_OAI21X1
ANAND2X1_19 [_133_ _137_] _4__1_ d_lut_NAND2X1
AOAI21X1_19 [_134_ _131_ _136_] _6__2_ d_lut_OAI21X1
AINVX1_13 [_6__2_] _141_ d_lut_INVX1
AOR2X2_8 [i_add_term2_6_ i_add_term1_6_] _142_ d_lut_OR2X2
ANAND2X1_20 [i_add_term2_6_ i_add_term1_6_] _143_ d_lut_NAND2X1
ANAND3X1_8 [_141_ _143_ _142_] _144_ d_lut_NAND3X1
ANOR2X1_8 [i_add_term2_6_ i_add_term1_6_] _138_ d_lut_NOR2X1
AAND2X2_8 [i_add_term2_6_ i_add_term1_6_] _139_ d_lut_AND2X2
AOAI21X1_20 [_138_ _139_ _6__2_] _140_ d_lut_OAI21X1
ANAND2X1_21 [_140_ _144_] _4__2_ d_lut_NAND2X1
AOAI21X1_21 [_141_ _138_ _143_] _6__3_ d_lut_OAI21X1
AINVX1_14 [_7_] _145_ d_lut_INVX1
ANAND2X1_22 [_8_ w_cout_1_] _146_ d_lut_NAND2X1
AOAI21X1_22 [w_cout_1_ _145_ _146_] w_cout_2_ d_lut_OAI21X1
AINVX1_15 [_9__0_] _147_ d_lut_INVX1
ANAND2X1_23 [_10__0_ w_cout_1_] _148_ d_lut_NAND2X1
AOAI21X1_23 [w_cout_1_ _147_ _148_] _0__8_ d_lut_OAI21X1
AINVX1_16 [_9__1_] _149_ d_lut_INVX1
ANAND2X1_24 [w_cout_1_ _10__1_] _150_ d_lut_NAND2X1
AOAI21X1_24 [w_cout_1_ _149_ _150_] _0__9_ d_lut_OAI21X1
AINVX1_17 [_9__2_] _151_ d_lut_INVX1
ANAND2X1_25 [w_cout_1_ _10__2_] _152_ d_lut_NAND2X1
AOAI21X1_25 [w_cout_1_ _151_ _152_] _0__10_ d_lut_OAI21X1
AINVX1_18 [_9__3_] _153_ d_lut_INVX1
ANAND2X1_26 [w_cout_1_ _10__3_] _154_ d_lut_NAND2X1
AOAI21X1_26 [w_cout_1_ _153_ _154_] _0__11_ d_lut_OAI21X1
AINVX1_19 [gnd] _158_ d_lut_INVX1
AOR2X2_9 [i_add_term2_8_ i_add_term1_8_] _159_ d_lut_OR2X2
ANAND2X1_27 [i_add_term2_8_ i_add_term1_8_] _160_ d_lut_NAND2X1
ANAND3X1_9 [_158_ _160_ _159_] _161_ d_lut_NAND3X1
ANOR2X1_9 [i_add_term2_8_ i_add_term1_8_] _155_ d_lut_NOR2X1
AAND2X2_9 [i_add_term2_8_ i_add_term1_8_] _156_ d_lut_AND2X2
AOAI21X1_27 [_155_ _156_ gnd] _157_ d_lut_OAI21X1
ANAND2X1_28 [_157_ _161_] _9__0_ d_lut_NAND2X1
AOAI21X1_28 [_158_ _155_ _160_] _11__1_ d_lut_OAI21X1
AINVX1_20 [_11__3_] _165_ d_lut_INVX1
AOR2X2_10 [i_add_term2_11_ i_add_term1_11_] _166_ d_lut_OR2X2
ANAND2X1_29 [i_add_term2_11_ i_add_term1_11_] _167_ d_lut_NAND2X1
ANAND3X1_10 [_165_ _167_ _166_] _168_ d_lut_NAND3X1
ANOR2X1_10 [i_add_term2_11_ i_add_term1_11_] _162_ d_lut_NOR2X1
AAND2X2_10 [i_add_term2_11_ i_add_term1_11_] _163_ d_lut_AND2X2
AOAI21X1_29 [_162_ _163_ _11__3_] _164_ d_lut_OAI21X1
ANAND2X1_30 [_164_ _168_] _9__3_ d_lut_NAND2X1
AOAI21X1_30 [_165_ _162_ _167_] _7_ d_lut_OAI21X1
AINVX1_21 [_11__1_] _172_ d_lut_INVX1
AOR2X2_11 [i_add_term2_9_ i_add_term1_9_] _173_ d_lut_OR2X2
ANAND2X1_31 [i_add_term2_9_ i_add_term1_9_] _174_ d_lut_NAND2X1
ANAND3X1_11 [_172_ _174_ _173_] _175_ d_lut_NAND3X1
ANOR2X1_11 [i_add_term2_9_ i_add_term1_9_] _169_ d_lut_NOR2X1
AAND2X2_11 [i_add_term2_9_ i_add_term1_9_] _170_ d_lut_AND2X2
AOAI21X1_31 [_169_ _170_ _11__1_] _171_ d_lut_OAI21X1
ANAND2X1_32 [_171_ _175_] _9__1_ d_lut_NAND2X1
AOAI21X1_32 [_172_ _169_ _174_] _11__2_ d_lut_OAI21X1
AINVX1_22 [_11__2_] _179_ d_lut_INVX1
AOR2X2_12 [i_add_term2_10_ i_add_term1_10_] _180_ d_lut_OR2X2
ANAND2X1_33 [i_add_term2_10_ i_add_term1_10_] _181_ d_lut_NAND2X1
ANAND3X1_12 [_179_ _181_ _180_] _182_ d_lut_NAND3X1
ANOR2X1_12 [i_add_term2_10_ i_add_term1_10_] _176_ d_lut_NOR2X1
AAND2X2_12 [i_add_term2_10_ i_add_term1_10_] _177_ d_lut_AND2X2
AOAI21X1_33 [_176_ _177_ _11__2_] _178_ d_lut_OAI21X1
ANAND2X1_34 [_178_ _182_] _9__2_ d_lut_NAND2X1
AOAI21X1_34 [_179_ _176_ _181_] _11__3_ d_lut_OAI21X1
AINVX1_23 [vdd] _186_ d_lut_INVX1
AOR2X2_13 [i_add_term2_8_ i_add_term1_8_] _187_ d_lut_OR2X2
ANAND2X1_35 [i_add_term2_8_ i_add_term1_8_] _188_ d_lut_NAND2X1
ANAND3X1_13 [_186_ _188_ _187_] _189_ d_lut_NAND3X1
ANOR2X1_13 [i_add_term2_8_ i_add_term1_8_] _183_ d_lut_NOR2X1
AAND2X2_13 [i_add_term2_8_ i_add_term1_8_] _184_ d_lut_AND2X2
AOAI21X1_35 [_183_ _184_ vdd] _185_ d_lut_OAI21X1
ANAND2X1_36 [_185_ _189_] _10__0_ d_lut_NAND2X1
AOAI21X1_36 [_186_ _183_ _188_] _12__1_ d_lut_OAI21X1
AINVX1_24 [_12__3_] _193_ d_lut_INVX1
AOR2X2_14 [i_add_term2_11_ i_add_term1_11_] _194_ d_lut_OR2X2
ANAND2X1_37 [i_add_term2_11_ i_add_term1_11_] _195_ d_lut_NAND2X1
ANAND3X1_14 [_193_ _195_ _194_] _196_ d_lut_NAND3X1
ANOR2X1_14 [i_add_term2_11_ i_add_term1_11_] _190_ d_lut_NOR2X1
AAND2X2_14 [i_add_term2_11_ i_add_term1_11_] _191_ d_lut_AND2X2
AOAI21X1_37 [_190_ _191_ _12__3_] _192_ d_lut_OAI21X1
ANAND2X1_38 [_192_ _196_] _10__3_ d_lut_NAND2X1
AOAI21X1_38 [_193_ _190_ _195_] _8_ d_lut_OAI21X1
AINVX1_25 [_12__1_] _200_ d_lut_INVX1
AOR2X2_15 [i_add_term2_9_ i_add_term1_9_] _201_ d_lut_OR2X2
ANAND2X1_39 [i_add_term2_9_ i_add_term1_9_] _202_ d_lut_NAND2X1
ANAND3X1_15 [_200_ _202_ _201_] _203_ d_lut_NAND3X1
ANOR2X1_15 [i_add_term2_9_ i_add_term1_9_] _197_ d_lut_NOR2X1
AAND2X2_15 [i_add_term2_9_ i_add_term1_9_] _198_ d_lut_AND2X2
AOAI21X1_39 [_197_ _198_ _12__1_] _199_ d_lut_OAI21X1
ANAND2X1_40 [_199_ _203_] _10__1_ d_lut_NAND2X1
AOAI21X1_40 [_200_ _197_ _202_] _12__2_ d_lut_OAI21X1
AINVX1_26 [_12__2_] _207_ d_lut_INVX1
AOR2X2_16 [i_add_term2_10_ i_add_term1_10_] _208_ d_lut_OR2X2
ANAND2X1_41 [i_add_term2_10_ i_add_term1_10_] _209_ d_lut_NAND2X1
ANAND3X1_16 [_207_ _209_ _208_] _210_ d_lut_NAND3X1
ANOR2X1_16 [i_add_term2_10_ i_add_term1_10_] _204_ d_lut_NOR2X1
AAND2X2_16 [i_add_term2_10_ i_add_term1_10_] _205_ d_lut_AND2X2
AOAI21X1_41 [_204_ _205_ _12__2_] _206_ d_lut_OAI21X1
ANAND2X1_42 [_206_ _210_] _10__2_ d_lut_NAND2X1
AOAI21X1_42 [_207_ _204_ _209_] _12__3_ d_lut_OAI21X1
AINVX1_27 [_13_] _211_ d_lut_INVX1
ANAND2X1_43 [_14_ w_cout_2_] _212_ d_lut_NAND2X1
AOAI21X1_43 [w_cout_2_ _211_ _212_] w_cout_3_ d_lut_OAI21X1
AINVX1_28 [_15__0_] _213_ d_lut_INVX1
ANAND2X1_44 [_16__0_ w_cout_2_] _214_ d_lut_NAND2X1
AOAI21X1_44 [w_cout_2_ _213_ _214_] _0__12_ d_lut_OAI21X1
AINVX1_29 [_15__1_] _215_ d_lut_INVX1
ANAND2X1_45 [w_cout_2_ _16__1_] _216_ d_lut_NAND2X1
AOAI21X1_45 [w_cout_2_ _215_ _216_] _0__13_ d_lut_OAI21X1
AINVX1_30 [_15__2_] _217_ d_lut_INVX1
ANAND2X1_46 [w_cout_2_ _16__2_] _218_ d_lut_NAND2X1
AOAI21X1_46 [w_cout_2_ _217_ _218_] _0__14_ d_lut_OAI21X1
AINVX1_31 [_15__3_] _219_ d_lut_INVX1
ANAND2X1_47 [w_cout_2_ _16__3_] _220_ d_lut_NAND2X1
AOAI21X1_47 [w_cout_2_ _219_ _220_] _0__15_ d_lut_OAI21X1
AINVX1_32 [gnd] _224_ d_lut_INVX1
AOR2X2_17 [i_add_term2_12_ i_add_term1_12_] _225_ d_lut_OR2X2
ANAND2X1_48 [i_add_term2_12_ i_add_term1_12_] _226_ d_lut_NAND2X1
ANAND3X1_17 [_224_ _226_ _225_] _227_ d_lut_NAND3X1
ANOR2X1_17 [i_add_term2_12_ i_add_term1_12_] _221_ d_lut_NOR2X1
AAND2X2_17 [i_add_term2_12_ i_add_term1_12_] _222_ d_lut_AND2X2
AOAI21X1_48 [_221_ _222_ gnd] _223_ d_lut_OAI21X1
ANAND2X1_49 [_223_ _227_] _15__0_ d_lut_NAND2X1
AOAI21X1_49 [_224_ _221_ _226_] _17__1_ d_lut_OAI21X1
AINVX1_33 [_17__3_] _231_ d_lut_INVX1
AOR2X2_18 [i_add_term2_15_ i_add_term1_15_] _232_ d_lut_OR2X2
ANAND2X1_50 [i_add_term2_15_ i_add_term1_15_] _233_ d_lut_NAND2X1
ANAND3X1_18 [_231_ _233_ _232_] _234_ d_lut_NAND3X1
ANOR2X1_18 [i_add_term2_15_ i_add_term1_15_] _228_ d_lut_NOR2X1
AAND2X2_18 [i_add_term2_15_ i_add_term1_15_] _229_ d_lut_AND2X2
AOAI21X1_50 [_228_ _229_ _17__3_] _230_ d_lut_OAI21X1
ANAND2X1_51 [_230_ _234_] _15__3_ d_lut_NAND2X1
AOAI21X1_51 [_231_ _228_ _233_] _13_ d_lut_OAI21X1
AINVX1_34 [_17__1_] _238_ d_lut_INVX1
AOR2X2_19 [i_add_term2_13_ i_add_term1_13_] _239_ d_lut_OR2X2
ANAND2X1_52 [i_add_term2_13_ i_add_term1_13_] _240_ d_lut_NAND2X1
ANAND3X1_19 [_238_ _240_ _239_] _241_ d_lut_NAND3X1
ANOR2X1_19 [i_add_term2_13_ i_add_term1_13_] _235_ d_lut_NOR2X1
AAND2X2_19 [i_add_term2_13_ i_add_term1_13_] _236_ d_lut_AND2X2
AOAI21X1_52 [_235_ _236_ _17__1_] _237_ d_lut_OAI21X1
ANAND2X1_53 [_237_ _241_] _15__1_ d_lut_NAND2X1
AOAI21X1_53 [_238_ _235_ _240_] _17__2_ d_lut_OAI21X1
AINVX1_35 [_17__2_] _245_ d_lut_INVX1
AOR2X2_20 [i_add_term2_14_ i_add_term1_14_] _246_ d_lut_OR2X2
ANAND2X1_54 [i_add_term2_14_ i_add_term1_14_] _247_ d_lut_NAND2X1
ANAND3X1_20 [_245_ _247_ _246_] _248_ d_lut_NAND3X1
ANOR2X1_20 [i_add_term2_14_ i_add_term1_14_] _242_ d_lut_NOR2X1
AAND2X2_20 [i_add_term2_14_ i_add_term1_14_] _243_ d_lut_AND2X2
AOAI21X1_54 [_242_ _243_ _17__2_] _244_ d_lut_OAI21X1
ANAND2X1_55 [_244_ _248_] _15__2_ d_lut_NAND2X1
AOAI21X1_55 [_245_ _242_ _247_] _17__3_ d_lut_OAI21X1
AINVX1_36 [vdd] _252_ d_lut_INVX1
AOR2X2_21 [i_add_term2_12_ i_add_term1_12_] _253_ d_lut_OR2X2
ANAND2X1_56 [i_add_term2_12_ i_add_term1_12_] _254_ d_lut_NAND2X1
ANAND3X1_21 [_252_ _254_ _253_] _255_ d_lut_NAND3X1
ANOR2X1_21 [i_add_term2_12_ i_add_term1_12_] _249_ d_lut_NOR2X1
AAND2X2_21 [i_add_term2_12_ i_add_term1_12_] _250_ d_lut_AND2X2
AOAI21X1_56 [_249_ _250_ vdd] _251_ d_lut_OAI21X1
ANAND2X1_57 [_251_ _255_] _16__0_ d_lut_NAND2X1
AOAI21X1_57 [_252_ _249_ _254_] _18__1_ d_lut_OAI21X1
AINVX1_37 [_18__3_] _259_ d_lut_INVX1
AOR2X2_22 [i_add_term2_15_ i_add_term1_15_] _260_ d_lut_OR2X2
ANAND2X1_58 [i_add_term2_15_ i_add_term1_15_] _261_ d_lut_NAND2X1
ANAND3X1_22 [_259_ _261_ _260_] _262_ d_lut_NAND3X1
ANOR2X1_22 [i_add_term2_15_ i_add_term1_15_] _256_ d_lut_NOR2X1
AAND2X2_22 [i_add_term2_15_ i_add_term1_15_] _257_ d_lut_AND2X2
AOAI21X1_58 [_256_ _257_ _18__3_] _258_ d_lut_OAI21X1
ANAND2X1_59 [_258_ _262_] _16__3_ d_lut_NAND2X1
AOAI21X1_59 [_259_ _256_ _261_] _14_ d_lut_OAI21X1
AINVX1_38 [_18__1_] _266_ d_lut_INVX1
AOR2X2_23 [i_add_term2_13_ i_add_term1_13_] _267_ d_lut_OR2X2
ANAND2X1_60 [i_add_term2_13_ i_add_term1_13_] _268_ d_lut_NAND2X1
ANAND3X1_23 [_266_ _268_ _267_] _269_ d_lut_NAND3X1
ANOR2X1_23 [i_add_term2_13_ i_add_term1_13_] _263_ d_lut_NOR2X1
AAND2X2_23 [i_add_term2_13_ i_add_term1_13_] _264_ d_lut_AND2X2
AOAI21X1_60 [_263_ _264_ _18__1_] _265_ d_lut_OAI21X1
ANAND2X1_61 [_265_ _269_] _16__1_ d_lut_NAND2X1
AOAI21X1_61 [_266_ _263_ _268_] _18__2_ d_lut_OAI21X1
AINVX1_39 [_18__2_] _273_ d_lut_INVX1
AOR2X2_24 [i_add_term2_14_ i_add_term1_14_] _274_ d_lut_OR2X2
ANAND2X1_62 [i_add_term2_14_ i_add_term1_14_] _275_ d_lut_NAND2X1
ANAND3X1_24 [_273_ _275_ _274_] _276_ d_lut_NAND3X1
ANOR2X1_24 [i_add_term2_14_ i_add_term1_14_] _270_ d_lut_NOR2X1
AAND2X2_24 [i_add_term2_14_ i_add_term1_14_] _271_ d_lut_AND2X2
AOAI21X1_62 [_270_ _271_ _18__2_] _272_ d_lut_OAI21X1
ANAND2X1_63 [_272_ _276_] _16__2_ d_lut_NAND2X1
AOAI21X1_63 [_273_ _270_ _275_] _18__3_ d_lut_OAI21X1
AINVX1_40 [_19_] _277_ d_lut_INVX1
ANAND2X1_64 [_20_ w_cout_3_] _278_ d_lut_NAND2X1
AOAI21X1_64 [w_cout_3_ _277_ _278_] w_cout_4_ d_lut_OAI21X1
AINVX1_41 [_21__0_] _279_ d_lut_INVX1
ANAND2X1_65 [_22__0_ w_cout_3_] _280_ d_lut_NAND2X1
AOAI21X1_65 [w_cout_3_ _279_ _280_] _0__16_ d_lut_OAI21X1
AINVX1_42 [_21__1_] _281_ d_lut_INVX1
ANAND2X1_66 [w_cout_3_ _22__1_] _282_ d_lut_NAND2X1
AOAI21X1_66 [w_cout_3_ _281_ _282_] _0__17_ d_lut_OAI21X1
AINVX1_43 [_21__2_] _283_ d_lut_INVX1
ANAND2X1_67 [w_cout_3_ _22__2_] _284_ d_lut_NAND2X1
AOAI21X1_67 [w_cout_3_ _283_ _284_] _0__18_ d_lut_OAI21X1
AINVX1_44 [_21__3_] _285_ d_lut_INVX1
ANAND2X1_68 [w_cout_3_ _22__3_] _286_ d_lut_NAND2X1
AOAI21X1_68 [w_cout_3_ _285_ _286_] _0__19_ d_lut_OAI21X1
AINVX1_45 [gnd] _290_ d_lut_INVX1
AOR2X2_25 [i_add_term2_16_ i_add_term1_16_] _291_ d_lut_OR2X2
ANAND2X1_69 [i_add_term2_16_ i_add_term1_16_] _292_ d_lut_NAND2X1
ANAND3X1_25 [_290_ _292_ _291_] _293_ d_lut_NAND3X1
ANOR2X1_25 [i_add_term2_16_ i_add_term1_16_] _287_ d_lut_NOR2X1
AAND2X2_25 [i_add_term2_16_ i_add_term1_16_] _288_ d_lut_AND2X2
AOAI21X1_69 [_287_ _288_ gnd] _289_ d_lut_OAI21X1
ANAND2X1_70 [_289_ _293_] _21__0_ d_lut_NAND2X1
AOAI21X1_70 [_290_ _287_ _292_] _23__1_ d_lut_OAI21X1
AINVX1_46 [_23__3_] _297_ d_lut_INVX1
AOR2X2_26 [i_add_term2_19_ i_add_term1_19_] _298_ d_lut_OR2X2
ANAND2X1_71 [i_add_term2_19_ i_add_term1_19_] _299_ d_lut_NAND2X1
ANAND3X1_26 [_297_ _299_ _298_] _300_ d_lut_NAND3X1
ANOR2X1_26 [i_add_term2_19_ i_add_term1_19_] _294_ d_lut_NOR2X1
AAND2X2_26 [i_add_term2_19_ i_add_term1_19_] _295_ d_lut_AND2X2
AOAI21X1_71 [_294_ _295_ _23__3_] _296_ d_lut_OAI21X1
ANAND2X1_72 [_296_ _300_] _21__3_ d_lut_NAND2X1
AOAI21X1_72 [_297_ _294_ _299_] _19_ d_lut_OAI21X1
AINVX1_47 [_23__1_] _304_ d_lut_INVX1
AOR2X2_27 [i_add_term2_17_ i_add_term1_17_] _305_ d_lut_OR2X2
ANAND2X1_73 [i_add_term2_17_ i_add_term1_17_] _306_ d_lut_NAND2X1
ANAND3X1_27 [_304_ _306_ _305_] _307_ d_lut_NAND3X1
ANOR2X1_27 [i_add_term2_17_ i_add_term1_17_] _301_ d_lut_NOR2X1
AAND2X2_27 [i_add_term2_17_ i_add_term1_17_] _302_ d_lut_AND2X2
AOAI21X1_73 [_301_ _302_ _23__1_] _303_ d_lut_OAI21X1
ANAND2X1_74 [_303_ _307_] _21__1_ d_lut_NAND2X1
AOAI21X1_74 [_304_ _301_ _306_] _23__2_ d_lut_OAI21X1
AINVX1_48 [_23__2_] _311_ d_lut_INVX1
AOR2X2_28 [i_add_term2_18_ i_add_term1_18_] _312_ d_lut_OR2X2
ANAND2X1_75 [i_add_term2_18_ i_add_term1_18_] _313_ d_lut_NAND2X1
ANAND3X1_28 [_311_ _313_ _312_] _314_ d_lut_NAND3X1
ANOR2X1_28 [i_add_term2_18_ i_add_term1_18_] _308_ d_lut_NOR2X1
AAND2X2_28 [i_add_term2_18_ i_add_term1_18_] _309_ d_lut_AND2X2
AOAI21X1_75 [_308_ _309_ _23__2_] _310_ d_lut_OAI21X1
ANAND2X1_76 [_310_ _314_] _21__2_ d_lut_NAND2X1
AOAI21X1_76 [_311_ _308_ _313_] _23__3_ d_lut_OAI21X1
AINVX1_49 [vdd] _318_ d_lut_INVX1
AOR2X2_29 [i_add_term2_16_ i_add_term1_16_] _319_ d_lut_OR2X2
ANAND2X1_77 [i_add_term2_16_ i_add_term1_16_] _320_ d_lut_NAND2X1
ANAND3X1_29 [_318_ _320_ _319_] _321_ d_lut_NAND3X1
ANOR2X1_29 [i_add_term2_16_ i_add_term1_16_] _315_ d_lut_NOR2X1
AAND2X2_29 [i_add_term2_16_ i_add_term1_16_] _316_ d_lut_AND2X2
AOAI21X1_77 [_315_ _316_ vdd] _317_ d_lut_OAI21X1
ANAND2X1_78 [_317_ _321_] _22__0_ d_lut_NAND2X1
AOAI21X1_78 [_318_ _315_ _320_] _24__1_ d_lut_OAI21X1
AINVX1_50 [_24__3_] _325_ d_lut_INVX1
AOR2X2_30 [i_add_term2_19_ i_add_term1_19_] _326_ d_lut_OR2X2
ANAND2X1_79 [i_add_term2_19_ i_add_term1_19_] _327_ d_lut_NAND2X1
ANAND3X1_30 [_325_ _327_ _326_] _328_ d_lut_NAND3X1
ANOR2X1_30 [i_add_term2_19_ i_add_term1_19_] _322_ d_lut_NOR2X1
AAND2X2_30 [i_add_term2_19_ i_add_term1_19_] _323_ d_lut_AND2X2
AOAI21X1_79 [_322_ _323_ _24__3_] _324_ d_lut_OAI21X1
ANAND2X1_80 [_324_ _328_] _22__3_ d_lut_NAND2X1
AOAI21X1_80 [_325_ _322_ _327_] _20_ d_lut_OAI21X1
AINVX1_51 [_24__1_] _332_ d_lut_INVX1
AOR2X2_31 [i_add_term2_17_ i_add_term1_17_] _333_ d_lut_OR2X2
ANAND2X1_81 [i_add_term2_17_ i_add_term1_17_] _334_ d_lut_NAND2X1
ANAND3X1_31 [_332_ _334_ _333_] _335_ d_lut_NAND3X1
ANOR2X1_31 [i_add_term2_17_ i_add_term1_17_] _329_ d_lut_NOR2X1
AAND2X2_31 [i_add_term2_17_ i_add_term1_17_] _330_ d_lut_AND2X2
AOAI21X1_81 [_329_ _330_ _24__1_] _331_ d_lut_OAI21X1
ANAND2X1_82 [_331_ _335_] _22__1_ d_lut_NAND2X1
AOAI21X1_82 [_332_ _329_ _334_] _24__2_ d_lut_OAI21X1
AINVX1_52 [_24__2_] _339_ d_lut_INVX1
AOR2X2_32 [i_add_term2_18_ i_add_term1_18_] _340_ d_lut_OR2X2
ANAND2X1_83 [i_add_term2_18_ i_add_term1_18_] _341_ d_lut_NAND2X1
ANAND3X1_32 [_339_ _341_ _340_] _342_ d_lut_NAND3X1
ANOR2X1_32 [i_add_term2_18_ i_add_term1_18_] _336_ d_lut_NOR2X1
AAND2X2_32 [i_add_term2_18_ i_add_term1_18_] _337_ d_lut_AND2X2
AOAI21X1_83 [_336_ _337_ _24__2_] _338_ d_lut_OAI21X1
ANAND2X1_84 [_338_ _342_] _22__2_ d_lut_NAND2X1
AOAI21X1_84 [_339_ _336_ _341_] _24__3_ d_lut_OAI21X1
AINVX1_53 [_25_] _343_ d_lut_INVX1
ANAND2X1_85 [_26_ w_cout_4_] _344_ d_lut_NAND2X1
AOAI21X1_85 [w_cout_4_ _343_ _344_] w_cout_5_ d_lut_OAI21X1
AINVX1_54 [_27__0_] _345_ d_lut_INVX1
ANAND2X1_86 [_28__0_ w_cout_4_] _346_ d_lut_NAND2X1
AOAI21X1_86 [w_cout_4_ _345_ _346_] _0__20_ d_lut_OAI21X1
AINVX1_55 [_27__1_] _347_ d_lut_INVX1
ANAND2X1_87 [w_cout_4_ _28__1_] _348_ d_lut_NAND2X1
AOAI21X1_87 [w_cout_4_ _347_ _348_] _0__21_ d_lut_OAI21X1
AINVX1_56 [_27__2_] _349_ d_lut_INVX1
ANAND2X1_88 [w_cout_4_ _28__2_] _350_ d_lut_NAND2X1
AOAI21X1_88 [w_cout_4_ _349_ _350_] _0__22_ d_lut_OAI21X1
AINVX1_57 [_27__3_] _351_ d_lut_INVX1
ANAND2X1_89 [w_cout_4_ _28__3_] _352_ d_lut_NAND2X1
AOAI21X1_89 [w_cout_4_ _351_ _352_] _0__23_ d_lut_OAI21X1
AINVX1_58 [gnd] _356_ d_lut_INVX1
AOR2X2_33 [i_add_term2_20_ i_add_term1_20_] _357_ d_lut_OR2X2
ANAND2X1_90 [i_add_term2_20_ i_add_term1_20_] _358_ d_lut_NAND2X1
ANAND3X1_33 [_356_ _358_ _357_] _359_ d_lut_NAND3X1
ANOR2X1_33 [i_add_term2_20_ i_add_term1_20_] _353_ d_lut_NOR2X1
AAND2X2_33 [i_add_term2_20_ i_add_term1_20_] _354_ d_lut_AND2X2
AOAI21X1_90 [_353_ _354_ gnd] _355_ d_lut_OAI21X1
ANAND2X1_91 [_355_ _359_] _27__0_ d_lut_NAND2X1
AOAI21X1_91 [_356_ _353_ _358_] _29__1_ d_lut_OAI21X1
AINVX1_59 [_29__3_] _363_ d_lut_INVX1
AOR2X2_34 [i_add_term2_23_ i_add_term1_23_] _364_ d_lut_OR2X2
ANAND2X1_92 [i_add_term2_23_ i_add_term1_23_] _365_ d_lut_NAND2X1
ANAND3X1_34 [_363_ _365_ _364_] _366_ d_lut_NAND3X1
ANOR2X1_34 [i_add_term2_23_ i_add_term1_23_] _360_ d_lut_NOR2X1
AAND2X2_34 [i_add_term2_23_ i_add_term1_23_] _361_ d_lut_AND2X2
AOAI21X1_92 [_360_ _361_ _29__3_] _362_ d_lut_OAI21X1
ANAND2X1_93 [_362_ _366_] _27__3_ d_lut_NAND2X1
AOAI21X1_93 [_363_ _360_ _365_] _25_ d_lut_OAI21X1
AINVX1_60 [_29__1_] _370_ d_lut_INVX1
AOR2X2_35 [i_add_term2_21_ i_add_term1_21_] _371_ d_lut_OR2X2
ANAND2X1_94 [i_add_term2_21_ i_add_term1_21_] _372_ d_lut_NAND2X1
ANAND3X1_35 [_370_ _372_ _371_] _373_ d_lut_NAND3X1
ANOR2X1_35 [i_add_term2_21_ i_add_term1_21_] _367_ d_lut_NOR2X1
AAND2X2_35 [i_add_term2_21_ i_add_term1_21_] _368_ d_lut_AND2X2
AOAI21X1_94 [_367_ _368_ _29__1_] _369_ d_lut_OAI21X1
ANAND2X1_95 [_369_ _373_] _27__1_ d_lut_NAND2X1
AOAI21X1_95 [_370_ _367_ _372_] _29__2_ d_lut_OAI21X1
AINVX1_61 [_29__2_] _377_ d_lut_INVX1
AOR2X2_36 [i_add_term2_22_ i_add_term1_22_] _378_ d_lut_OR2X2
ANAND2X1_96 [i_add_term2_22_ i_add_term1_22_] _379_ d_lut_NAND2X1
ANAND3X1_36 [_377_ _379_ _378_] _380_ d_lut_NAND3X1
ANOR2X1_36 [i_add_term2_22_ i_add_term1_22_] _374_ d_lut_NOR2X1
AAND2X2_36 [i_add_term2_22_ i_add_term1_22_] _375_ d_lut_AND2X2
AOAI21X1_96 [_374_ _375_ _29__2_] _376_ d_lut_OAI21X1
ANAND2X1_97 [_376_ _380_] _27__2_ d_lut_NAND2X1
AOAI21X1_97 [_377_ _374_ _379_] _29__3_ d_lut_OAI21X1
AINVX1_62 [vdd] _384_ d_lut_INVX1
AOR2X2_37 [i_add_term2_20_ i_add_term1_20_] _385_ d_lut_OR2X2
ANAND2X1_98 [i_add_term2_20_ i_add_term1_20_] _386_ d_lut_NAND2X1
ANAND3X1_37 [_384_ _386_ _385_] _387_ d_lut_NAND3X1
ANOR2X1_37 [i_add_term2_20_ i_add_term1_20_] _381_ d_lut_NOR2X1
AAND2X2_37 [i_add_term2_20_ i_add_term1_20_] _382_ d_lut_AND2X2
AOAI21X1_98 [_381_ _382_ vdd] _383_ d_lut_OAI21X1
ANAND2X1_99 [_383_ _387_] _28__0_ d_lut_NAND2X1
AOAI21X1_99 [_384_ _381_ _386_] _30__1_ d_lut_OAI21X1
AINVX1_63 [_30__3_] _391_ d_lut_INVX1
AOR2X2_38 [i_add_term2_23_ i_add_term1_23_] _392_ d_lut_OR2X2
ANAND2X1_100 [i_add_term2_23_ i_add_term1_23_] _393_ d_lut_NAND2X1
ANAND3X1_38 [_391_ _393_ _392_] _394_ d_lut_NAND3X1
ANOR2X1_38 [i_add_term2_23_ i_add_term1_23_] _388_ d_lut_NOR2X1
AAND2X2_38 [i_add_term2_23_ i_add_term1_23_] _389_ d_lut_AND2X2
AOAI21X1_100 [_388_ _389_ _30__3_] _390_ d_lut_OAI21X1
ANAND2X1_101 [_390_ _394_] _28__3_ d_lut_NAND2X1
AOAI21X1_101 [_391_ _388_ _393_] _26_ d_lut_OAI21X1
AINVX1_64 [_30__1_] _398_ d_lut_INVX1
AOR2X2_39 [i_add_term2_21_ i_add_term1_21_] _399_ d_lut_OR2X2
ANAND2X1_102 [i_add_term2_21_ i_add_term1_21_] _400_ d_lut_NAND2X1
ANAND3X1_39 [_398_ _400_ _399_] _401_ d_lut_NAND3X1
ANOR2X1_39 [i_add_term2_21_ i_add_term1_21_] _395_ d_lut_NOR2X1
AAND2X2_39 [i_add_term2_21_ i_add_term1_21_] _396_ d_lut_AND2X2
AOAI21X1_102 [_395_ _396_ _30__1_] _397_ d_lut_OAI21X1
ANAND2X1_103 [_397_ _401_] _28__1_ d_lut_NAND2X1
AOAI21X1_103 [_398_ _395_ _400_] _30__2_ d_lut_OAI21X1
AINVX1_65 [_30__2_] _405_ d_lut_INVX1
AOR2X2_40 [i_add_term2_22_ i_add_term1_22_] _406_ d_lut_OR2X2
ANAND2X1_104 [i_add_term2_22_ i_add_term1_22_] _407_ d_lut_NAND2X1
ANAND3X1_40 [_405_ _407_ _406_] _408_ d_lut_NAND3X1
ANOR2X1_40 [i_add_term2_22_ i_add_term1_22_] _402_ d_lut_NOR2X1
AAND2X2_40 [i_add_term2_22_ i_add_term1_22_] _403_ d_lut_AND2X2
AOAI21X1_104 [_402_ _403_ _30__2_] _404_ d_lut_OAI21X1
ANAND2X1_105 [_404_ _408_] _28__2_ d_lut_NAND2X1
AOAI21X1_105 [_405_ _402_ _407_] _30__3_ d_lut_OAI21X1
AINVX1_66 [_31_] _409_ d_lut_INVX1
ANAND2X1_106 [_32_ w_cout_5_] _410_ d_lut_NAND2X1
AOAI21X1_106 [w_cout_5_ _409_ _410_] w_cout_6_ d_lut_OAI21X1
AINVX1_67 [_33__0_] _411_ d_lut_INVX1
ANAND2X1_107 [_34__0_ w_cout_5_] _412_ d_lut_NAND2X1
AOAI21X1_107 [w_cout_5_ _411_ _412_] _0__24_ d_lut_OAI21X1
AINVX1_68 [_33__1_] _413_ d_lut_INVX1
ANAND2X1_108 [w_cout_5_ _34__1_] _414_ d_lut_NAND2X1
AOAI21X1_108 [w_cout_5_ _413_ _414_] _0__25_ d_lut_OAI21X1
AINVX1_69 [_33__2_] _415_ d_lut_INVX1
ANAND2X1_109 [w_cout_5_ _34__2_] _416_ d_lut_NAND2X1
AOAI21X1_109 [w_cout_5_ _415_ _416_] _0__26_ d_lut_OAI21X1
AINVX1_70 [_33__3_] _417_ d_lut_INVX1
ANAND2X1_110 [w_cout_5_ _34__3_] _418_ d_lut_NAND2X1
AOAI21X1_110 [w_cout_5_ _417_ _418_] _0__27_ d_lut_OAI21X1
AINVX1_71 [gnd] _422_ d_lut_INVX1
AOR2X2_41 [i_add_term2_24_ i_add_term1_24_] _423_ d_lut_OR2X2
ANAND2X1_111 [i_add_term2_24_ i_add_term1_24_] _424_ d_lut_NAND2X1
ANAND3X1_41 [_422_ _424_ _423_] _425_ d_lut_NAND3X1
ANOR2X1_41 [i_add_term2_24_ i_add_term1_24_] _419_ d_lut_NOR2X1
AAND2X2_41 [i_add_term2_24_ i_add_term1_24_] _420_ d_lut_AND2X2
AOAI21X1_111 [_419_ _420_ gnd] _421_ d_lut_OAI21X1
ANAND2X1_112 [_421_ _425_] _33__0_ d_lut_NAND2X1
AOAI21X1_112 [_422_ _419_ _424_] _35__1_ d_lut_OAI21X1
AINVX1_72 [_35__3_] _429_ d_lut_INVX1
AOR2X2_42 [i_add_term2_27_ i_add_term1_27_] _430_ d_lut_OR2X2
ANAND2X1_113 [i_add_term2_27_ i_add_term1_27_] _431_ d_lut_NAND2X1
ANAND3X1_42 [_429_ _431_ _430_] _432_ d_lut_NAND3X1
ANOR2X1_42 [i_add_term2_27_ i_add_term1_27_] _426_ d_lut_NOR2X1
AAND2X2_42 [i_add_term2_27_ i_add_term1_27_] _427_ d_lut_AND2X2
AOAI21X1_113 [_426_ _427_ _35__3_] _428_ d_lut_OAI21X1
ANAND2X1_114 [_428_ _432_] _33__3_ d_lut_NAND2X1
AOAI21X1_114 [_429_ _426_ _431_] _31_ d_lut_OAI21X1
AINVX1_73 [_35__1_] _436_ d_lut_INVX1
AOR2X2_43 [i_add_term2_25_ i_add_term1_25_] _437_ d_lut_OR2X2
ANAND2X1_115 [i_add_term2_25_ i_add_term1_25_] _438_ d_lut_NAND2X1
ANAND3X1_43 [_436_ _438_ _437_] _439_ d_lut_NAND3X1
ANOR2X1_43 [i_add_term2_25_ i_add_term1_25_] _433_ d_lut_NOR2X1
AAND2X2_43 [i_add_term2_25_ i_add_term1_25_] _434_ d_lut_AND2X2
AOAI21X1_115 [_433_ _434_ _35__1_] _435_ d_lut_OAI21X1