*SPICE netlist created from BLIF module csa_57bit by blif2BSpice
.include /usr/local/share/qflow/tech/osu035/osu035_stdcells.sp
.subckt csa_57bit vdd gnd i_add_term1[0] i_add_term1[1] i_add_term1[2] i_add_term1[3] i_add_term1[4] i_add_term1[5] i_add_term1[6] i_add_term1[7] i_add_term1[8] i_add_term1[9] i_add_term1[10] i_add_term1[11] i_add_term1[12] i_add_term1[13] i_add_term1[14] i_add_term1[15] i_add_term1[16] i_add_term1[17] i_add_term1[18] i_add_term1[19] i_add_term1[20] i_add_term1[21] i_add_term1[22] i_add_term1[23] i_add_term1[24] i_add_term1[25] i_add_term1[26] i_add_term1[27] i_add_term1[28] i_add_term1[29] i_add_term1[30] i_add_term1[31] i_add_term1[32] i_add_term1[33] i_add_term1[34] i_add_term1[35] i_add_term1[36] i_add_term1[37] i_add_term1[38] i_add_term1[39] i_add_term1[40] i_add_term1[41] i_add_term1[42] i_add_term1[43] i_add_term1[44] i_add_term1[45] i_add_term1[46] i_add_term1[47] i_add_term1[48] i_add_term1[49] i_add_term1[50] i_add_term1[51] i_add_term1[52] i_add_term1[53] i_add_term1[54] i_add_term1[55] i_add_term1[56] i_add_term2[0] i_add_term2[1] i_add_term2[2] i_add_term2[3] i_add_term2[4] i_add_term2[5] i_add_term2[6] i_add_term2[7] i_add_term2[8] i_add_term2[9] i_add_term2[10] i_add_term2[11] i_add_term2[12] i_add_term2[13] i_add_term2[14] i_add_term2[15] i_add_term2[16] i_add_term2[17] i_add_term2[18] i_add_term2[19] i_add_term2[20] i_add_term2[21] i_add_term2[22] i_add_term2[23] i_add_term2[24] i_add_term2[25] i_add_term2[26] i_add_term2[27] i_add_term2[28] i_add_term2[29] i_add_term2[30] i_add_term2[31] i_add_term2[32] i_add_term2[33] i_add_term2[34] i_add_term2[35] i_add_term2[36] i_add_term2[37] i_add_term2[38] i_add_term2[39] i_add_term2[40] i_add_term2[41] i_add_term2[42] i_add_term2[43] i_add_term2[44] i_add_term2[45] i_add_term2[46] i_add_term2[47] i_add_term2[48] i_add_term2[49] i_add_term2[50] i_add_term2[51] i_add_term2[52] i_add_term2[53] i_add_term2[54] i_add_term2[55] i_add_term2[56] sum[0] sum[1] sum[2] sum[3] sum[4] sum[5] sum[6] sum[7] sum[8] sum[9] sum[10] sum[11] sum[12] sum[13] sum[14] sum[15] sum[16] sum[17] sum[18] sum[19] sum[20] sum[21] sum[22] sum[23] sum[24] sum[25] sum[26] sum[27] sum[28] sum[29] sum[30] sum[31] sum[32] sum[33] sum[34] sum[35] sum[36] sum[37] sum[38] sum[39] sum[40] sum[41] sum[42] sum[43] sum[44] sum[45] sum[46] sum[47] sum[48] sum[49] sum[50] sum[51] sum[52] sum[53] sum[54] sum[55] sum[56] cout 
XBUFX2_1 vdd gnd _0_[16] sum[16] BUFX2
XBUFX2_2 vdd gnd _0_[17] sum[17] BUFX2
XBUFX2_3 vdd gnd _0_[18] sum[18] BUFX2
XBUFX2_4 vdd gnd _0_[19] sum[19] BUFX2
XBUFX2_5 vdd gnd _0_[20] sum[20] BUFX2
XBUFX2_6 vdd gnd _0_[21] sum[21] BUFX2
XBUFX2_7 vdd gnd _0_[22] sum[22] BUFX2
XBUFX2_8 vdd gnd _0_[23] sum[23] BUFX2
XBUFX2_9 vdd gnd _0_[24] sum[24] BUFX2
XBUFX2_10 vdd gnd _0_[25] sum[25] BUFX2
XBUFX2_11 vdd gnd _0_[26] sum[26] BUFX2
XBUFX2_12 vdd gnd _0_[27] sum[27] BUFX2
XBUFX2_13 vdd gnd _0_[28] sum[28] BUFX2
XBUFX2_14 vdd gnd _0_[29] sum[29] BUFX2
XBUFX2_15 vdd gnd _0_[30] sum[30] BUFX2
XBUFX2_16 vdd gnd _0_[31] sum[31] BUFX2
XBUFX2_17 vdd gnd _0_[32] sum[32] BUFX2
XBUFX2_18 vdd gnd _0_[33] sum[33] BUFX2
XBUFX2_19 vdd gnd _0_[34] sum[34] BUFX2
XBUFX2_20 vdd gnd _0_[35] sum[35] BUFX2
XBUFX2_21 vdd gnd _0_[36] sum[36] BUFX2
XBUFX2_22 vdd gnd _0_[37] sum[37] BUFX2
XBUFX2_23 vdd gnd _0_[38] sum[38] BUFX2
XBUFX2_24 vdd gnd _0_[39] sum[39] BUFX2
XBUFX2_25 vdd gnd _0_[40] sum[40] BUFX2
XBUFX2_26 vdd gnd _0_[41] sum[41] BUFX2
XBUFX2_27 vdd gnd _0_[42] sum[42] BUFX2
XBUFX2_28 vdd gnd _0_[43] sum[43] BUFX2
XBUFX2_29 vdd gnd _0_[44] sum[44] BUFX2
XBUFX2_30 vdd gnd _0_[45] sum[45] BUFX2
XBUFX2_31 vdd gnd _0_[46] sum[46] BUFX2
XBUFX2_32 vdd gnd _0_[47] sum[47] BUFX2
XBUFX2_33 vdd gnd _0_[48] sum[48] BUFX2
XBUFX2_34 vdd gnd _0_[49] sum[49] BUFX2
XBUFX2_35 vdd gnd _0_[50] sum[50] BUFX2
XBUFX2_36 vdd gnd _0_[51] sum[51] BUFX2
XBUFX2_37 vdd gnd _0_[52] sum[52] BUFX2
XBUFX2_38 vdd gnd _0_[53] sum[53] BUFX2
XBUFX2_39 vdd gnd _0_[54] sum[54] BUFX2
XBUFX2_40 vdd gnd _0_[55] sum[55] BUFX2
XBUFX2_41 vdd gnd csa_inst.mux0_sum.y sum[56] BUFX2
XINVX1_1 _1_ _79_ vdd gnd INVX1
XNAND2X1_1 vdd _80_ gnd _2_ rca_inst.cout NAND2X1
XOAI21X1_1 gnd vdd rca_inst.cout _79_ w_cout[1] _80_ OAI21X1
XINVX1_2 _3_[0] _81_ vdd gnd INVX1
XNAND2X1_2 vdd _82_ gnd _4_[0] rca_inst.cout NAND2X1
XOAI21X1_2 gnd vdd rca_inst.cout _81_ _0_[4] _82_ OAI21X1
XINVX1_3 _3_[1] _83_ vdd gnd INVX1
XNAND2X1_3 vdd _84_ gnd rca_inst.cout _4_[1] NAND2X1
XOAI21X1_3 gnd vdd rca_inst.cout _83_ _0_[5] _84_ OAI21X1
XINVX1_4 _3_[2] _85_ vdd gnd INVX1
XNAND2X1_4 vdd _86_ gnd rca_inst.cout _4_[2] NAND2X1
XOAI21X1_4 gnd vdd rca_inst.cout _85_ _0_[6] _86_ OAI21X1
XINVX1_5 _3_[3] _87_ vdd gnd INVX1
XNAND2X1_5 vdd _88_ gnd rca_inst.cout _4_[3] NAND2X1
XOAI21X1_5 gnd vdd rca_inst.cout _87_ _0_[7] _88_ OAI21X1
XINVX1_6 gnd _92_ vdd gnd INVX1
XOR2X2_1 _93_ i_add_term1[4] vdd gnd i_add_term2[4] OR2X2
XNAND2X1_6 vdd _94_ gnd i_add_term2[4] i_add_term1[4] NAND2X1
XNAND3X1_1 _94_ vdd gnd _92_ _93_ _95_ NAND3X1
XNOR2X1_1 vdd i_add_term1[4] gnd _89_ i_add_term2[4] NOR2X1
XAND2X2_1 vdd gnd i_add_term2[4] i_add_term1[4] _90_ AND2X2
XOAI21X1_6 gnd vdd _89_ _90_ _91_ gnd OAI21X1
XNAND2X1_7 vdd _3_[0] gnd _91_ _95_ NAND2X1
XOAI21X1_7 gnd vdd _92_ _89_ _5_[1] _94_ OAI21X1
XINVX1_7 _5_[3] _99_ vdd gnd INVX1
XOR2X2_2 _100_ i_add_term1[7] vdd gnd i_add_term2[7] OR2X2
XNAND2X1_8 vdd _101_ gnd i_add_term2[7] i_add_term1[7] NAND2X1
XNAND3X1_2 _101_ vdd gnd _99_ _100_ _102_ NAND3X1
XNOR2X1_2 vdd i_add_term1[7] gnd _96_ i_add_term2[7] NOR2X1
XAND2X2_2 vdd gnd i_add_term2[7] i_add_term1[7] _97_ AND2X2
XOAI21X1_8 gnd vdd _96_ _97_ _98_ _5_[3] OAI21X1
XNAND2X1_9 vdd _3_[3] gnd _98_ _102_ NAND2X1
XOAI21X1_9 gnd vdd _99_ _96_ _1_ _101_ OAI21X1
XINVX1_8 _5_[1] _106_ vdd gnd INVX1
XOR2X2_3 _107_ i_add_term1[5] vdd gnd i_add_term2[5] OR2X2
XNAND2X1_10 vdd _108_ gnd i_add_term2[5] i_add_term1[5] NAND2X1
XNAND3X1_3 _108_ vdd gnd _106_ _107_ _109_ NAND3X1
XNOR2X1_3 vdd i_add_term1[5] gnd _103_ i_add_term2[5] NOR2X1
XAND2X2_3 vdd gnd i_add_term2[5] i_add_term1[5] _104_ AND2X2
XOAI21X1_10 gnd vdd _103_ _104_ _105_ _5_[1] OAI21X1
XNAND2X1_11 vdd _3_[1] gnd _105_ _109_ NAND2X1
XOAI21X1_11 gnd vdd _106_ _103_ _5_[2] _108_ OAI21X1
XINVX1_9 _5_[2] _113_ vdd gnd INVX1
XOR2X2_4 _114_ i_add_term1[6] vdd gnd i_add_term2[6] OR2X2
XNAND2X1_12 vdd _115_ gnd i_add_term2[6] i_add_term1[6] NAND2X1
XNAND3X1_4 _115_ vdd gnd _113_ _114_ _116_ NAND3X1
XNOR2X1_4 vdd i_add_term1[6] gnd _110_ i_add_term2[6] NOR2X1
XAND2X2_4 vdd gnd i_add_term2[6] i_add_term1[6] _111_ AND2X2
XOAI21X1_12 gnd vdd _110_ _111_ _112_ _5_[2] OAI21X1
XNAND2X1_13 vdd _3_[2] gnd _112_ _116_ NAND2X1
XOAI21X1_13 gnd vdd _113_ _110_ _5_[3] _115_ OAI21X1
XINVX1_10 vdd _120_ vdd gnd INVX1
XOR2X2_5 _121_ i_add_term1[4] vdd gnd i_add_term2[4] OR2X2
XNAND2X1_14 vdd _122_ gnd i_add_term2[4] i_add_term1[4] NAND2X1
XNAND3X1_5 _122_ vdd gnd _120_ _121_ _123_ NAND3X1
XNOR2X1_5 vdd i_add_term1[4] gnd _117_ i_add_term2[4] NOR2X1
XAND2X2_5 vdd gnd i_add_term2[4] i_add_term1[4] _118_ AND2X2
XOAI21X1_14 gnd vdd _117_ _118_ _119_ vdd OAI21X1
XNAND2X1_15 vdd _4_[0] gnd _119_ _123_ NAND2X1
XOAI21X1_15 gnd vdd _120_ _117_ _6_[1] _122_ OAI21X1
XINVX1_11 _6_[3] _127_ vdd gnd INVX1
XOR2X2_6 _128_ i_add_term1[7] vdd gnd i_add_term2[7] OR2X2
XNAND2X1_16 vdd _129_ gnd i_add_term2[7] i_add_term1[7] NAND2X1
XNAND3X1_6 _129_ vdd gnd _127_ _128_ _130_ NAND3X1
XNOR2X1_6 vdd i_add_term1[7] gnd _124_ i_add_term2[7] NOR2X1
XAND2X2_6 vdd gnd i_add_term2[7] i_add_term1[7] _125_ AND2X2
XOAI21X1_16 gnd vdd _124_ _125_ _126_ _6_[3] OAI21X1
XNAND2X1_17 vdd _4_[3] gnd _126_ _130_ NAND2X1
XOAI21X1_17 gnd vdd _127_ _124_ _2_ _129_ OAI21X1
XINVX1_12 _6_[1] _134_ vdd gnd INVX1
XOR2X2_7 _135_ i_add_term1[5] vdd gnd i_add_term2[5] OR2X2
XNAND2X1_18 vdd _136_ gnd i_add_term2[5] i_add_term1[5] NAND2X1
XNAND3X1_7 _136_ vdd gnd _134_ _135_ _137_ NAND3X1
XNOR2X1_7 vdd i_add_term1[5] gnd _131_ i_add_term2[5] NOR2X1
XAND2X2_7 vdd gnd i_add_term2[5] i_add_term1[5] _132_ AND2X2
XOAI21X1_18 gnd vdd _131_ _132_ _133_ _6_[1] OAI21X1
XNAND2X1_19 vdd _4_[1] gnd _133_ _137_ NAND2X1
XOAI21X1_19 gnd vdd _134_ _131_ _6_[2] _136_ OAI21X1
XINVX1_13 _6_[2] _141_ vdd gnd INVX1
XOR2X2_8 _142_ i_add_term1[6] vdd gnd i_add_term2[6] OR2X2
XNAND2X1_20 vdd _143_ gnd i_add_term2[6] i_add_term1[6] NAND2X1
XNAND3X1_8 _143_ vdd gnd _141_ _142_ _144_ NAND3X1
XNOR2X1_8 vdd i_add_term1[6] gnd _138_ i_add_term2[6] NOR2X1
XAND2X2_8 vdd gnd i_add_term2[6] i_add_term1[6] _139_ AND2X2
XOAI21X1_20 gnd vdd _138_ _139_ _140_ _6_[2] OAI21X1
XNAND2X1_21 vdd _4_[2] gnd _140_ _144_ NAND2X1
XOAI21X1_21 gnd vdd _141_ _138_ _6_[3] _143_ OAI21X1
XINVX1_14 _7_ _145_ vdd gnd INVX1
XNAND2X1_22 vdd _146_ gnd _8_ w_cout[1] NAND2X1
XOAI21X1_22 gnd vdd w_cout[1] _145_ w_cout[2] _146_ OAI21X1
XINVX1_15 _9_[0] _147_ vdd gnd INVX1
XNAND2X1_23 vdd _148_ gnd _10_[0] w_cout[1] NAND2X1
XOAI21X1_23 gnd vdd w_cout[1] _147_ _0_[8] _148_ OAI21X1
XINVX1_16 _9_[1] _149_ vdd gnd INVX1
XNAND2X1_24 vdd _150_ gnd w_cout[1] _10_[1] NAND2X1
XOAI21X1_24 gnd vdd w_cout[1] _149_ _0_[9] _150_ OAI21X1
XINVX1_17 _9_[2] _151_ vdd gnd INVX1
XNAND2X1_25 vdd _152_ gnd w_cout[1] _10_[2] NAND2X1
XOAI21X1_25 gnd vdd w_cout[1] _151_ _0_[10] _152_ OAI21X1
XINVX1_18 _9_[3] _153_ vdd gnd INVX1
XNAND2X1_26 vdd _154_ gnd w_cout[1] _10_[3] NAND2X1
XOAI21X1_26 gnd vdd w_cout[1] _153_ _0_[11] _154_ OAI21X1
XINVX1_19 gnd _158_ vdd gnd INVX1
XOR2X2_9 _159_ i_add_term1[8] vdd gnd i_add_term2[8] OR2X2
XNAND2X1_27 vdd _160_ gnd i_add_term2[8] i_add_term1[8] NAND2X1
XNAND3X1_9 _160_ vdd gnd _158_ _159_ _161_ NAND3X1
XNOR2X1_9 vdd i_add_term1[8] gnd _155_ i_add_term2[8] NOR2X1
XAND2X2_9 vdd gnd i_add_term2[8] i_add_term1[8] _156_ AND2X2
XOAI21X1_27 gnd vdd _155_ _156_ _157_ gnd OAI21X1
XNAND2X1_28 vdd _9_[0] gnd _157_ _161_ NAND2X1
XOAI21X1_28 gnd vdd _158_ _155_ _11_[1] _160_ OAI21X1
XINVX1_20 _11_[3] _165_ vdd gnd INVX1
XOR2X2_10 _166_ i_add_term1[11] vdd gnd i_add_term2[11] OR2X2
XNAND2X1_29 vdd _167_ gnd i_add_term2[11] i_add_term1[11] NAND2X1
XNAND3X1_10 _167_ vdd gnd _165_ _166_ _168_ NAND3X1
XNOR2X1_10 vdd i_add_term1[11] gnd _162_ i_add_term2[11] NOR2X1
XAND2X2_10 vdd gnd i_add_term2[11] i_add_term1[11] _163_ AND2X2
XOAI21X1_29 gnd vdd _162_ _163_ _164_ _11_[3] OAI21X1
XNAND2X1_30 vdd _9_[3] gnd _164_ _168_ NAND2X1
XOAI21X1_30 gnd vdd _165_ _162_ _7_ _167_ OAI21X1
XINVX1_21 _11_[1] _172_ vdd gnd INVX1
XOR2X2_11 _173_ i_add_term1[9] vdd gnd i_add_term2[9] OR2X2
XNAND2X1_31 vdd _174_ gnd i_add_term2[9] i_add_term1[9] NAND2X1
XNAND3X1_11 _174_ vdd gnd _172_ _173_ _175_ NAND3X1
XNOR2X1_11 vdd i_add_term1[9] gnd _169_ i_add_term2[9] NOR2X1
XAND2X2_11 vdd gnd i_add_term2[9] i_add_term1[9] _170_ AND2X2
XOAI21X1_31 gnd vdd _169_ _170_ _171_ _11_[1] OAI21X1
XNAND2X1_32 vdd _9_[1] gnd _171_ _175_ NAND2X1
XOAI21X1_32 gnd vdd _172_ _169_ _11_[2] _174_ OAI21X1
XINVX1_22 _11_[2] _179_ vdd gnd INVX1
XOR2X2_12 _180_ i_add_term1[10] vdd gnd i_add_term2[10] OR2X2
XNAND2X1_33 vdd _181_ gnd i_add_term2[10] i_add_term1[10] NAND2X1
XNAND3X1_12 _181_ vdd gnd _179_ _180_ _182_ NAND3X1
XNOR2X1_12 vdd i_add_term1[10] gnd _176_ i_add_term2[10] NOR2X1
XAND2X2_12 vdd gnd i_add_term2[10] i_add_term1[10] _177_ AND2X2
XOAI21X1_33 gnd vdd _176_ _177_ _178_ _11_[2] OAI21X1
XNAND2X1_34 vdd _9_[2] gnd _178_ _182_ NAND2X1
XOAI21X1_34 gnd vdd _179_ _176_ _11_[3] _181_ OAI21X1
XINVX1_23 vdd _186_ vdd gnd INVX1
XOR2X2_13 _187_ i_add_term1[8] vdd gnd i_add_term2[8] OR2X2
XNAND2X1_35 vdd _188_ gnd i_add_term2[8] i_add_term1[8] NAND2X1
XNAND3X1_13 _188_ vdd gnd _186_ _187_ _189_ NAND3X1
XNOR2X1_13 vdd i_add_term1[8] gnd _183_ i_add_term2[8] NOR2X1
XAND2X2_13 vdd gnd i_add_term2[8] i_add_term1[8] _184_ AND2X2
XOAI21X1_35 gnd vdd _183_ _184_ _185_ vdd OAI21X1
XNAND2X1_36 vdd _10_[0] gnd _185_ _189_ NAND2X1
XOAI21X1_36 gnd vdd _186_ _183_ _12_[1] _188_ OAI21X1
XINVX1_24 _12_[3] _193_ vdd gnd INVX1
XOR2X2_14 _194_ i_add_term1[11] vdd gnd i_add_term2[11] OR2X2
XNAND2X1_37 vdd _195_ gnd i_add_term2[11] i_add_term1[11] NAND2X1
XNAND3X1_14 _195_ vdd gnd _193_ _194_ _196_ NAND3X1
XNOR2X1_14 vdd i_add_term1[11] gnd _190_ i_add_term2[11] NOR2X1
XAND2X2_14 vdd gnd i_add_term2[11] i_add_term1[11] _191_ AND2X2
XOAI21X1_37 gnd vdd _190_ _191_ _192_ _12_[3] OAI21X1
XNAND2X1_38 vdd _10_[3] gnd _192_ _196_ NAND2X1
XOAI21X1_38 gnd vdd _193_ _190_ _8_ _195_ OAI21X1
XINVX1_25 _12_[1] _200_ vdd gnd INVX1
XOR2X2_15 _201_ i_add_term1[9] vdd gnd i_add_term2[9] OR2X2
XNAND2X1_39 vdd _202_ gnd i_add_term2[9] i_add_term1[9] NAND2X1
XNAND3X1_15 _202_ vdd gnd _200_ _201_ _203_ NAND3X1
XNOR2X1_15 vdd i_add_term1[9] gnd _197_ i_add_term2[9] NOR2X1
XAND2X2_15 vdd gnd i_add_term2[9] i_add_term1[9] _198_ AND2X2
XOAI21X1_39 gnd vdd _197_ _198_ _199_ _12_[1] OAI21X1
XNAND2X1_40 vdd _10_[1] gnd _199_ _203_ NAND2X1
XOAI21X1_40 gnd vdd _200_ _197_ _12_[2] _202_ OAI21X1
XINVX1_26 _12_[2] _207_ vdd gnd INVX1
XOR2X2_16 _208_ i_add_term1[10] vdd gnd i_add_term2[10] OR2X2
XNAND2X1_41 vdd _209_ gnd i_add_term2[10] i_add_term1[10] NAND2X1
XNAND3X1_16 _209_ vdd gnd _207_ _208_ _210_ NAND3X1
XNOR2X1_16 vdd i_add_term1[10] gnd _204_ i_add_term2[10] NOR2X1
XAND2X2_16 vdd gnd i_add_term2[10] i_add_term1[10] _205_ AND2X2
XOAI21X1_41 gnd vdd _204_ _205_ _206_ _12_[2] OAI21X1
XNAND2X1_42 vdd _10_[2] gnd _206_ _210_ NAND2X1
XOAI21X1_42 gnd vdd _207_ _204_ _12_[3] _209_ OAI21X1
XINVX1_27 _13_ _211_ vdd gnd INVX1
XNAND2X1_43 vdd _212_ gnd _14_ w_cout[2] NAND2X1
XOAI21X1_43 gnd vdd w_cout[2] _211_ w_cout[3] _212_ OAI21X1
XINVX1_28 _15_[0] _213_ vdd gnd INVX1
XNAND2X1_44 vdd _214_ gnd _16_[0] w_cout[2] NAND2X1
XOAI21X1_44 gnd vdd w_cout[2] _213_ _0_[12] _214_ OAI21X1
XINVX1_29 _15_[1] _215_ vdd gnd INVX1
XNAND2X1_45 vdd _216_ gnd w_cout[2] _16_[1] NAND2X1
XOAI21X1_45 gnd vdd w_cout[2] _215_ _0_[13] _216_ OAI21X1
XINVX1_30 _15_[2] _217_ vdd gnd INVX1
XNAND2X1_46 vdd _218_ gnd w_cout[2] _16_[2] NAND2X1
XOAI21X1_46 gnd vdd w_cout[2] _217_ _0_[14] _218_ OAI21X1
XINVX1_31 _15_[3] _219_ vdd gnd INVX1
XNAND2X1_47 vdd _220_ gnd w_cout[2] _16_[3] NAND2X1
XOAI21X1_47 gnd vdd w_cout[2] _219_ _0_[15] _220_ OAI21X1
XINVX1_32 gnd _224_ vdd gnd INVX1
XOR2X2_17 _225_ i_add_term1[12] vdd gnd i_add_term2[12] OR2X2
XNAND2X1_48 vdd _226_ gnd i_add_term2[12] i_add_term1[12] NAND2X1
XNAND3X1_17 _226_ vdd gnd _224_ _225_ _227_ NAND3X1
XNOR2X1_17 vdd i_add_term1[12] gnd _221_ i_add_term2[12] NOR2X1
XAND2X2_17 vdd gnd i_add_term2[12] i_add_term1[12] _222_ AND2X2
XOAI21X1_48 gnd vdd _221_ _222_ _223_ gnd OAI21X1
XNAND2X1_49 vdd _15_[0] gnd _223_ _227_ NAND2X1
XOAI21X1_49 gnd vdd _224_ _221_ _17_[1] _226_ OAI21X1
XINVX1_33 _17_[3] _231_ vdd gnd INVX1
XOR2X2_18 _232_ i_add_term1[15] vdd gnd i_add_term2[15] OR2X2
XNAND2X1_50 vdd _233_ gnd i_add_term2[15] i_add_term1[15] NAND2X1
XNAND3X1_18 _233_ vdd gnd _231_ _232_ _234_ NAND3X1
XNOR2X1_18 vdd i_add_term1[15] gnd _228_ i_add_term2[15] NOR2X1
XAND2X2_18 vdd gnd i_add_term2[15] i_add_term1[15] _229_ AND2X2
XOAI21X1_50 gnd vdd _228_ _229_ _230_ _17_[3] OAI21X1
XNAND2X1_51 vdd _15_[3] gnd _230_ _234_ NAND2X1
XOAI21X1_51 gnd vdd _231_ _228_ _13_ _233_ OAI21X1
XINVX1_34 _17_[1] _238_ vdd gnd INVX1
XOR2X2_19 _239_ i_add_term1[13] vdd gnd i_add_term2[13] OR2X2
XNAND2X1_52 vdd _240_ gnd i_add_term2[13] i_add_term1[13] NAND2X1
XNAND3X1_19 _240_ vdd gnd _238_ _239_ _241_ NAND3X1
XNOR2X1_19 vdd i_add_term1[13] gnd _235_ i_add_term2[13] NOR2X1
XAND2X2_19 vdd gnd i_add_term2[13] i_add_term1[13] _236_ AND2X2
XOAI21X1_52 gnd vdd _235_ _236_ _237_ _17_[1] OAI21X1
XNAND2X1_53 vdd _15_[1] gnd _237_ _241_ NAND2X1
XOAI21X1_53 gnd vdd _238_ _235_ _17_[2] _240_ OAI21X1
XINVX1_35 _17_[2] _245_ vdd gnd INVX1
XOR2X2_20 _246_ i_add_term1[14] vdd gnd i_add_term2[14] OR2X2
XNAND2X1_54 vdd _247_ gnd i_add_term2[14] i_add_term1[14] NAND2X1
XNAND3X1_20 _247_ vdd gnd _245_ _246_ _248_ NAND3X1
XNOR2X1_20 vdd i_add_term1[14] gnd _242_ i_add_term2[14] NOR2X1
XAND2X2_20 vdd gnd i_add_term2[14] i_add_term1[14] _243_ AND2X2
XOAI21X1_54 gnd vdd _242_ _243_ _244_ _17_[2] OAI21X1
XNAND2X1_55 vdd _15_[2] gnd _244_ _248_ NAND2X1
XOAI21X1_55 gnd vdd _245_ _242_ _17_[3] _247_ OAI21X1
XINVX1_36 vdd _252_ vdd gnd INVX1
XOR2X2_21 _253_ i_add_term1[12] vdd gnd i_add_term2[12] OR2X2
XNAND2X1_56 vdd _254_ gnd i_add_term2[12] i_add_term1[12] NAND2X1
XNAND3X1_21 _254_ vdd gnd _252_ _253_ _255_ NAND3X1
XNOR2X1_21 vdd i_add_term1[12] gnd _249_ i_add_term2[12] NOR2X1
XAND2X2_21 vdd gnd i_add_term2[12] i_add_term1[12] _250_ AND2X2
XOAI21X1_56 gnd vdd _249_ _250_ _251_ vdd OAI21X1
XNAND2X1_57 vdd _16_[0] gnd _251_ _255_ NAND2X1
XOAI21X1_57 gnd vdd _252_ _249_ _18_[1] _254_ OAI21X1
XINVX1_37 _18_[3] _259_ vdd gnd INVX1
XOR2X2_22 _260_ i_add_term1[15] vdd gnd i_add_term2[15] OR2X2
XNAND2X1_58 vdd _261_ gnd i_add_term2[15] i_add_term1[15] NAND2X1
XNAND3X1_22 _261_ vdd gnd _259_ _260_ _262_ NAND3X1
XNOR2X1_22 vdd i_add_term1[15] gnd _256_ i_add_term2[15] NOR2X1
XAND2X2_22 vdd gnd i_add_term2[15] i_add_term1[15] _257_ AND2X2
XOAI21X1_58 gnd vdd _256_ _257_ _258_ _18_[3] OAI21X1
XNAND2X1_59 vdd _16_[3] gnd _258_ _262_ NAND2X1
XOAI21X1_59 gnd vdd _259_ _256_ _14_ _261_ OAI21X1
XINVX1_38 _18_[1] _266_ vdd gnd INVX1
XOR2X2_23 _267_ i_add_term1[13] vdd gnd i_add_term2[13] OR2X2
XNAND2X1_60 vdd _268_ gnd i_add_term2[13] i_add_term1[13] NAND2X1
XNAND3X1_23 _268_ vdd gnd _266_ _267_ _269_ NAND3X1
XNOR2X1_23 vdd i_add_term1[13] gnd _263_ i_add_term2[13] NOR2X1
XAND2X2_23 vdd gnd i_add_term2[13] i_add_term1[13] _264_ AND2X2
XOAI21X1_60 gnd vdd _263_ _264_ _265_ _18_[1] OAI21X1
XNAND2X1_61 vdd _16_[1] gnd _265_ _269_ NAND2X1
XOAI21X1_61 gnd vdd _266_ _263_ _18_[2] _268_ OAI21X1
XINVX1_39 _18_[2] _273_ vdd gnd INVX1
XOR2X2_24 _274_ i_add_term1[14] vdd gnd i_add_term2[14] OR2X2
XNAND2X1_62 vdd _275_ gnd i_add_term2[14] i_add_term1[14] NAND2X1
XNAND3X1_24 _275_ vdd gnd _273_ _274_ _276_ NAND3X1
XNOR2X1_24 vdd i_add_term1[14] gnd _270_ i_add_term2[14] NOR2X1
XAND2X2_24 vdd gnd i_add_term2[14] i_add_term1[14] _271_ AND2X2
XOAI21X1_62 gnd vdd _270_ _271_ _272_ _18_[2] OAI21X1
XNAND2X1_63 vdd _16_[2] gnd _272_ _276_ NAND2X1
XOAI21X1_63 gnd vdd _273_ _270_ _18_[3] _275_ OAI21X1
XINVX1_40 _19_ _277_ vdd gnd INVX1
XNAND2X1_64 vdd _278_ gnd _20_ w_cout[3] NAND2X1
XOAI21X1_64 gnd vdd w_cout[3] _277_ w_cout[4] _278_ OAI21X1
XINVX1_41 _21_[0] _279_ vdd gnd INVX1
XNAND2X1_65 vdd _280_ gnd _22_[0] w_cout[3] NAND2X1
XOAI21X1_65 gnd vdd w_cout[3] _279_ _0_[16] _280_ OAI21X1
XINVX1_42 _21_[1] _281_ vdd gnd INVX1
XNAND2X1_66 vdd _282_ gnd w_cout[3] _22_[1] NAND2X1
XOAI21X1_66 gnd vdd w_cout[3] _281_ _0_[17] _282_ OAI21X1
XINVX1_43 _21_[2] _283_ vdd gnd INVX1
XNAND2X1_67 vdd _284_ gnd w_cout[3] _22_[2] NAND2X1
XOAI21X1_67 gnd vdd w_cout[3] _283_ _0_[18] _284_ OAI21X1
XINVX1_44 _21_[3] _285_ vdd gnd INVX1
XNAND2X1_68 vdd _286_ gnd w_cout[3] _22_[3] NAND2X1
XOAI21X1_68 gnd vdd w_cout[3] _285_ _0_[19] _286_ OAI21X1
XINVX1_45 gnd _290_ vdd gnd INVX1
XOR2X2_25 _291_ i_add_term1[16] vdd gnd i_add_term2[16] OR2X2
XNAND2X1_69 vdd _292_ gnd i_add_term2[16] i_add_term1[16] NAND2X1
XNAND3X1_25 _292_ vdd gnd _290_ _291_ _293_ NAND3X1
XNOR2X1_25 vdd i_add_term1[16] gnd _287_ i_add_term2[16] NOR2X1
XAND2X2_25 vdd gnd i_add_term2[16] i_add_term1[16] _288_ AND2X2
XOAI21X1_69 gnd vdd _287_ _288_ _289_ gnd OAI21X1
XNAND2X1_70 vdd _21_[0] gnd _289_ _293_ NAND2X1
XOAI21X1_70 gnd vdd _290_ _287_ _23_[1] _292_ OAI21X1
XINVX1_46 _23_[3] _297_ vdd gnd INVX1
XOR2X2_26 _298_ i_add_term1[19] vdd gnd i_add_term2[19] OR2X2
XNAND2X1_71 vdd _299_ gnd i_add_term2[19] i_add_term1[19] NAND2X1
XNAND3X1_26 _299_ vdd gnd _297_ _298_ _300_ NAND3X1
XNOR2X1_26 vdd i_add_term1[19] gnd _294_ i_add_term2[19] NOR2X1
XAND2X2_26 vdd gnd i_add_term2[19] i_add_term1[19] _295_ AND2X2
XOAI21X1_71 gnd vdd _294_ _295_ _296_ _23_[3] OAI21X1
XNAND2X1_72 vdd _21_[3] gnd _296_ _300_ NAND2X1
XOAI21X1_72 gnd vdd _297_ _294_ _19_ _299_ OAI21X1
XINVX1_47 _23_[1] _304_ vdd gnd INVX1
XOR2X2_27 _305_ i_add_term1[17] vdd gnd i_add_term2[17] OR2X2
XNAND2X1_73 vdd _306_ gnd i_add_term2[17] i_add_term1[17] NAND2X1
XNAND3X1_27 _306_ vdd gnd _304_ _305_ _307_ NAND3X1
XNOR2X1_27 vdd i_add_term1[17] gnd _301_ i_add_term2[17] NOR2X1
XAND2X2_27 vdd gnd i_add_term2[17] i_add_term1[17] _302_ AND2X2
XOAI21X1_73 gnd vdd _301_ _302_ _303_ _23_[1] OAI21X1
XNAND2X1_74 vdd _21_[1] gnd _303_ _307_ NAND2X1
XOAI21X1_74 gnd vdd _304_ _301_ _23_[2] _306_ OAI21X1
XINVX1_48 _23_[2] _311_ vdd gnd INVX1
XOR2X2_28 _312_ i_add_term1[18] vdd gnd i_add_term2[18] OR2X2
XNAND2X1_75 vdd _313_ gnd i_add_term2[18] i_add_term1[18] NAND2X1
XNAND3X1_28 _313_ vdd gnd _311_ _312_ _314_ NAND3X1
XNOR2X1_28 vdd i_add_term1[18] gnd _308_ i_add_term2[18] NOR2X1
XAND2X2_28 vdd gnd i_add_term2[18] i_add_term1[18] _309_ AND2X2
XOAI21X1_75 gnd vdd _308_ _309_ _310_ _23_[2] OAI21X1
XNAND2X1_76 vdd _21_[2] gnd _310_ _314_ NAND2X1
XOAI21X1_76 gnd vdd _311_ _308_ _23_[3] _313_ OAI21X1
XINVX1_49 vdd _318_ vdd gnd INVX1
XOR2X2_29 _319_ i_add_term1[16] vdd gnd i_add_term2[16] OR2X2
XNAND2X1_77 vdd _320_ gnd i_add_term2[16] i_add_term1[16] NAND2X1
XNAND3X1_29 _320_ vdd gnd _318_ _319_ _321_ NAND3X1
XNOR2X1_29 vdd i_add_term1[16] gnd _315_ i_add_term2[16] NOR2X1
XAND2X2_29 vdd gnd i_add_term2[16] i_add_term1[16] _316_ AND2X2
XOAI21X1_77 gnd vdd _315_ _316_ _317_ vdd OAI21X1
XNAND2X1_78 vdd _22_[0] gnd _317_ _321_ NAND2X1
XOAI21X1_78 gnd vdd _318_ _315_ _24_[1] _320_ OAI21X1
XINVX1_50 _24_[3] _325_ vdd gnd INVX1
XOR2X2_30 _326_ i_add_term1[19] vdd gnd i_add_term2[19] OR2X2
XNAND2X1_79 vdd _327_ gnd i_add_term2[19] i_add_term1[19] NAND2X1
XNAND3X1_30 _327_ vdd gnd _325_ _326_ _328_ NAND3X1
XNOR2X1_30 vdd i_add_term1[19] gnd _322_ i_add_term2[19] NOR2X1
XAND2X2_30 vdd gnd i_add_term2[19] i_add_term1[19] _323_ AND2X2
XOAI21X1_79 gnd vdd _322_ _323_ _324_ _24_[3] OAI21X1
XNAND2X1_80 vdd _22_[3] gnd _324_ _328_ NAND2X1
XOAI21X1_80 gnd vdd _325_ _322_ _20_ _327_ OAI21X1
XINVX1_51 _24_[1] _332_ vdd gnd INVX1
XOR2X2_31 _333_ i_add_term1[17] vdd gnd i_add_term2[17] OR2X2
XNAND2X1_81 vdd _334_ gnd i_add_term2[17] i_add_term1[17] NAND2X1
XNAND3X1_31 _334_ vdd gnd _332_ _333_ _335_ NAND3X1
XNOR2X1_31 vdd i_add_term1[17] gnd _329_ i_add_term2[17] NOR2X1
XAND2X2_31 vdd gnd i_add_term2[17] i_add_term1[17] _330_ AND2X2
XOAI21X1_81 gnd vdd _329_ _330_ _331_ _24_[1] OAI21X1
XNAND2X1_82 vdd _22_[1] gnd _331_ _335_ NAND2X1
XOAI21X1_82 gnd vdd _332_ _329_ _24_[2] _334_ OAI21X1
XINVX1_52 _24_[2] _339_ vdd gnd INVX1
XOR2X2_32 _340_ i_add_term1[18] vdd gnd i_add_term2[18] OR2X2
XNAND2X1_83 vdd _341_ gnd i_add_term2[18] i_add_term1[18] NAND2X1
XNAND3X1_32 _341_ vdd gnd _339_ _340_ _342_ NAND3X1
XNOR2X1_32 vdd i_add_term1[18] gnd _336_ i_add_term2[18] NOR2X1
XAND2X2_32 vdd gnd i_add_term2[18] i_add_term1[18] _337_ AND2X2
XOAI21X1_83 gnd vdd _336_ _337_ _338_ _24_[2] OAI21X1
XNAND2X1_84 vdd _22_[2] gnd _338_ _342_ NAND2X1
XOAI21X1_84 gnd vdd _339_ _336_ _24_[3] _341_ OAI21X1
XINVX1_53 _25_ _343_ vdd gnd INVX1
XNAND2X1_85 vdd _344_ gnd _26_ w_cout[4] NAND2X1
XOAI21X1_85 gnd vdd w_cout[4] _343_ w_cout[5] _344_ OAI21X1
XINVX1_54 _27_[0] _345_ vdd gnd INVX1
XNAND2X1_86 vdd _346_ gnd _28_[0] w_cout[4] NAND2X1
XOAI21X1_86 gnd vdd w_cout[4] _345_ _0_[20] _346_ OAI21X1
XINVX1_55 _27_[1] _347_ vdd gnd INVX1
XNAND2X1_87 vdd _348_ gnd w_cout[4] _28_[1] NAND2X1
XOAI21X1_87 gnd vdd w_cout[4] _347_ _0_[21] _348_ OAI21X1
XINVX1_56 _27_[2] _349_ vdd gnd INVX1
XNAND2X1_88 vdd _350_ gnd w_cout[4] _28_[2] NAND2X1
XOAI21X1_88 gnd vdd w_cout[4] _349_ _0_[22] _350_ OAI21X1
XINVX1_57 _27_[3] _351_ vdd gnd INVX1
XNAND2X1_89 vdd _352_ gnd w_cout[4] _28_[3] NAND2X1
XOAI21X1_89 gnd vdd w_cout[4] _351_ _0_[23] _352_ OAI21X1
XINVX1_58 gnd _356_ vdd gnd INVX1
XOR2X2_33 _357_ i_add_term1[20] vdd gnd i_add_term2[20] OR2X2
XNAND2X1_90 vdd _358_ gnd i_add_term2[20] i_add_term1[20] NAND2X1
XNAND3X1_33 _358_ vdd gnd _356_ _357_ _359_ NAND3X1
XNOR2X1_33 vdd i_add_term1[20] gnd _353_ i_add_term2[20] NOR2X1
XAND2X2_33 vdd gnd i_add_term2[20] i_add_term1[20] _354_ AND2X2
XOAI21X1_90 gnd vdd _353_ _354_ _355_ gnd OAI21X1
XNAND2X1_91 vdd _27_[0] gnd _355_ _359_ NAND2X1
XOAI21X1_91 gnd vdd _356_ _353_ _29_[1] _358_ OAI21X1
XINVX1_59 _29_[3] _363_ vdd gnd INVX1
XOR2X2_34 _364_ i_add_term1[23] vdd gnd i_add_term2[23] OR2X2
XNAND2X1_92 vdd _365_ gnd i_add_term2[23] i_add_term1[23] NAND2X1
XNAND3X1_34 _365_ vdd gnd _363_ _364_ _366_ NAND3X1
XNOR2X1_34 vdd i_add_term1[23] gnd _360_ i_add_term2[23] NOR2X1
XAND2X2_34 vdd gnd i_add_term2[23] i_add_term1[23] _361_ AND2X2
XOAI21X1_92 gnd vdd _360_ _361_ _362_ _29_[3] OAI21X1
XNAND2X1_93 vdd _27_[3] gnd _362_ _366_ NAND2X1
XOAI21X1_93 gnd vdd _363_ _360_ _25_ _365_ OAI21X1
XINVX1_60 _29_[1] _370_ vdd gnd INVX1
XOR2X2_35 _371_ i_add_term1[21] vdd gnd i_add_term2[21] OR2X2
XNAND2X1_94 vdd _372_ gnd i_add_term2[21] i_add_term1[21] NAND2X1
XNAND3X1_35 _372_ vdd gnd _370_ _371_ _373_ NAND3X1
XNOR2X1_35 vdd i_add_term1[21] gnd _367_ i_add_term2[21] NOR2X1
XAND2X2_35 vdd gnd i_add_term2[21] i_add_term1[21] _368_ AND2X2
XOAI21X1_94 gnd vdd _367_ _368_ _369_ _29_[1] OAI21X1
XNAND2X1_95 vdd _27_[1] gnd _369_ _373_ NAND2X1
XOAI21X1_95 gnd vdd _370_ _367_ _29_[2] _372_ OAI21X1
XINVX1_61 _29_[2] _377_ vdd gnd INVX1
XOR2X2_36 _378_ i_add_term1[22] vdd gnd i_add_term2[22] OR2X2
XNAND2X1_96 vdd _379_ gnd i_add_term2[22] i_add_term1[22] NAND2X1
XNAND3X1_36 _379_ vdd gnd _377_ _378_ _380_ NAND3X1
XNOR2X1_36 vdd i_add_term1[22] gnd _374_ i_add_term2[22] NOR2X1
XAND2X2_36 vdd gnd i_add_term2[22] i_add_term1[22] _375_ AND2X2
XOAI21X1_96 gnd vdd _374_ _375_ _376_ _29_[2] OAI21X1
XNAND2X1_97 vdd _27_[2] gnd _376_ _380_ NAND2X1
XOAI21X1_97 gnd vdd _377_ _374_ _29_[3] _379_ OAI21X1
XINVX1_62 vdd _384_ vdd gnd INVX1
XOR2X2_37 _385_ i_add_term1[20] vdd gnd i_add_term2[20] OR2X2
XNAND2X1_98 vdd _386_ gnd i_add_term2[20] i_add_term1[20] NAND2X1
XNAND3X1_37 _386_ vdd gnd _384_ _385_ _387_ NAND3X1
XNOR2X1_37 vdd i_add_term1[20] gnd _381_ i_add_term2[20] NOR2X1
XAND2X2_37 vdd gnd i_add_term2[20] i_add_term1[20] _382_ AND2X2
XOAI21X1_98 gnd vdd _381_ _382_ _383_ vdd OAI21X1
XNAND2X1_99 vdd _28_[0] gnd _383_ _387_ NAND2X1
XOAI21X1_99 gnd vdd _384_ _381_ _30_[1] _386_ OAI21X1
XINVX1_63 _30_[3] _391_ vdd gnd INVX1
XOR2X2_38 _392_ i_add_term1[23] vdd gnd i_add_term2[23] OR2X2
XNAND2X1_100 vdd _393_ gnd i_add_term2[23] i_add_term1[23] NAND2X1
XNAND3X1_38 _393_ vdd gnd _391_ _392_ _394_ NAND3X1
XNOR2X1_38 vdd i_add_term1[23] gnd _388_ i_add_term2[23] NOR2X1
XAND2X2_38 vdd gnd i_add_term2[23] i_add_term1[23] _389_ AND2X2
XOAI21X1_100 gnd vdd _388_ _389_ _390_ _30_[3] OAI21X1
XNAND2X1_101 vdd _28_[3] gnd _390_ _394_ NAND2X1
XOAI21X1_101 gnd vdd _391_ _388_ _26_ _393_ OAI21X1
XINVX1_64 _30_[1] _398_ vdd gnd INVX1
XOR2X2_39 _399_ i_add_term1[21] vdd gnd i_add_term2[21] OR2X2
XNAND2X1_102 vdd _400_ gnd i_add_term2[21] i_add_term1[21] NAND2X1
XNAND3X1_39 _400_ vdd gnd _398_ _399_ _401_ NAND3X1
XNOR2X1_39 vdd i_add_term1[21] gnd _395_ i_add_term2[21] NOR2X1
XAND2X2_39 vdd gnd i_add_term2[21] i_add_term1[21] _396_ AND2X2
XOAI21X1_102 gnd vdd _395_ _396_ _397_ _30_[1] OAI21X1
XNAND2X1_103 vdd _28_[1] gnd _397_ _401_ NAND2X1
XOAI21X1_103 gnd vdd _398_ _395_ _30_[2] _400_ OAI21X1
XINVX1_65 _30_[2] _405_ vdd gnd INVX1
XOR2X2_40 _406_ i_add_term1[22] vdd gnd i_add_term2[22] OR2X2
XNAND2X1_104 vdd _407_ gnd i_add_term2[22] i_add_term1[22] NAND2X1
XNAND3X1_40 _407_ vdd gnd _405_ _406_ _408_ NAND3X1
XNOR2X1_40 vdd i_add_term1[22] gnd _402_ i_add_term2[22] NOR2X1
XAND2X2_40 vdd gnd i_add_term2[22] i_add_term1[22] _403_ AND2X2
XOAI21X1_104 gnd vdd _402_ _403_ _404_ _30_[2] OAI21X1
XNAND2X1_105 vdd _28_[2] gnd _404_ _408_ NAND2X1
XOAI21X1_105 gnd vdd _405_ _402_ _30_[3] _407_ OAI21X1
XINVX1_66 _31_ _409_ vdd gnd INVX1
XNAND2X1_106 vdd _410_ gnd _32_ w_cout[5] NAND2X1
XOAI21X1_106 gnd vdd w_cout[5] _409_ w_cout[6] _410_ OAI21X1
XINVX1_67 _33_[0] _411_ vdd gnd INVX1
XNAND2X1_107 vdd _412_ gnd _34_[0] w_cout[5] NAND2X1
XOAI21X1_107 gnd vdd w_cout[5] _411_ _0_[24] _412_ OAI21X1
XINVX1_68 _33_[1] _413_ vdd gnd INVX1
XNAND2X1_108 vdd _414_ gnd w_cout[5] _34_[1] NAND2X1
XOAI21X1_108 gnd vdd w_cout[5] _413_ _0_[25] _414_ OAI21X1
XINVX1_69 _33_[2] _415_ vdd gnd INVX1
XNAND2X1_109 vdd _416_ gnd w_cout[5] _34_[2] NAND2X1
XOAI21X1_109 gnd vdd w_cout[5] _415_ _0_[26] _416_ OAI21X1
XINVX1_70 _33_[3] _417_ vdd gnd INVX1
XNAND2X1_110 vdd _418_ gnd w_cout[5] _34_[3] NAND2X1
XOAI21X1_110 gnd vdd w_cout[5] _417_ _0_[27] _418_ OAI21X1
XINVX1_71 gnd _422_ vdd gnd INVX1
XOR2X2_41 _423_ i_add_term1[24] vdd gnd i_add_term2[24] OR2X2
XNAND2X1_111 vdd _424_ gnd i_add_term2[24] i_add_term1[24] NAND2X1
XNAND3X1_41 _424_ vdd gnd _422_ _423_ _425_ NAND3X1
XNOR2X1_41 vdd i_add_term1[24] gnd _419_ i_add_term2[24] NOR2X1
XAND2X2_41 vdd gnd i_add_term2[24] i_add_term1[24] _420_ AND2X2
XOAI21X1_111 gnd vdd _419_ _420_ _421_ gnd OAI21X1
XNAND2X1_112 vdd _33_[0] gnd _421_ _425_ NAND2X1
XOAI21X1_112 gnd vdd _422_ _419_ _35_[1] _424_ OAI21X1
XINVX1_72 _35_[3] _429_ vdd gnd INVX1
XOR2X2_42 _430_ i_add_term1[27] vdd gnd i_add_term2[27] OR2X2
XNAND2X1_113 vdd _431_ gnd i_add_term2[27] i_add_term1[27] NAND2X1
XNAND3X1_42 _431_ vdd gnd _429_ _430_ _432_ NAND3X1
XNOR2X1_42 vdd i_add_term1[27] gnd _426_ i_add_term2[27] NOR2X1
XAND2X2_42 vdd gnd i_add_term2[27] i_add_term1[27] _427_ AND2X2
XOAI21X1_113 gnd vdd _426_ _427_ _428_ _35_[3] OAI21X1
XNAND2X1_114 vdd _33_[3] gnd _428_ _432_ NAND2X1
XOAI21X1_114 gnd vdd _429_ _426_ _31_ _431_ OAI21X1
XINVX1_73 _35_[1] _436_ vdd gnd INVX1
XOR2X2_43 _437_ i_add_term1[25] vdd gnd i_add_term2[25] OR2X2
XNAND2X1_115 vdd _438_ gnd i_add_term2[25] i_add_term1[25] NAND2X1
XNAND3X1_43 _438_ vdd gnd _436_ _437_ _439_ NAND3X1
XNOR2X1_43 vdd i_add_term1[25] gnd _433_ i_add_term2[25] NOR2X1
XAND2X2_43 vdd gnd i_add_term2[25] i_add_term1[25] _434_ AND2X2
XOAI21X1_115 gnd vdd _433_ _434_ _435_ _35_[1] OAI21X1
XNAND2X1_116 vdd _33_[1] gnd _435_ _439_ NAND2X1
XOAI21X1_116 gnd vdd _436_ _433_ _35_[2] _438_ OAI21X1
XINVX1_74 _35_[2] _443_ vdd gnd INVX1
XOR2X2_44 _444_ i_add_term1[26] vdd gnd i_add_term2[26] OR2X2
XNAND2X1_117 vdd _445_ gnd i_add_term2[26] i_add_term1[26] NAND2X1
XNAND3X1_44 _445_ vdd gnd _443_ _444_ _446_ NAND3X1