* XSpice netlist created from SPICE and liberty sources by spi2xspice.py
*SPICE netlist created from BLIF module csa_61bit by blif2BSpice
.subckt csa_61bit a_vdd a_gnd a_i_add_term1_0_ a_i_add_term1_1_ a_i_add_term1_2_ a_i_add_term1_3_ a_i_add_term1_4_ a_i_add_term1_5_ a_i_add_term1_6_ a_i_add_term1_7_ a_i_add_term1_8_ a_i_add_term1_9_ a_i_add_term1_10_ a_i_add_term1_11_ a_i_add_term1_12_ a_i_add_term1_13_ a_i_add_term1_14_ a_i_add_term1_15_ a_i_add_term1_16_ a_i_add_term1_17_ a_i_add_term1_18_ a_i_add_term1_19_ a_i_add_term1_20_ a_i_add_term1_21_ a_i_add_term1_22_ a_i_add_term1_23_ a_i_add_term1_24_ a_i_add_term1_25_ a_i_add_term1_26_ a_i_add_term1_27_ a_i_add_term1_28_ a_i_add_term1_29_ a_i_add_term1_30_ a_i_add_term1_31_ a_i_add_term1_32_ a_i_add_term1_33_ a_i_add_term1_34_ a_i_add_term1_35_ a_i_add_term1_36_ a_i_add_term1_37_ a_i_add_term1_38_ a_i_add_term1_39_ a_i_add_term1_40_ a_i_add_term1_41_ a_i_add_term1_42_ a_i_add_term1_43_ a_i_add_term1_44_ a_i_add_term1_45_ a_i_add_term1_46_ a_i_add_term1_47_ a_i_add_term1_48_ a_i_add_term1_49_ a_i_add_term1_50_ a_i_add_term1_51_ a_i_add_term1_52_ a_i_add_term1_53_ a_i_add_term1_54_ a_i_add_term1_55_ a_i_add_term1_56_ a_i_add_term1_57_ a_i_add_term1_58_ a_i_add_term1_59_ a_i_add_term1_60_ a_i_add_term2_0_ a_i_add_term2_1_ a_i_add_term2_2_ a_i_add_term2_3_ a_i_add_term2_4_ a_i_add_term2_5_ a_i_add_term2_6_ a_i_add_term2_7_ a_i_add_term2_8_ a_i_add_term2_9_ a_i_add_term2_10_ a_i_add_term2_11_ a_i_add_term2_12_ a_i_add_term2_13_ a_i_add_term2_14_ a_i_add_term2_15_ a_i_add_term2_16_ a_i_add_term2_17_ a_i_add_term2_18_ a_i_add_term2_19_ a_i_add_term2_20_ a_i_add_term2_21_ a_i_add_term2_22_ a_i_add_term2_23_ a_i_add_term2_24_ a_i_add_term2_25_ a_i_add_term2_26_ a_i_add_term2_27_ a_i_add_term2_28_ a_i_add_term2_29_ a_i_add_term2_30_ a_i_add_term2_31_ a_i_add_term2_32_ a_i_add_term2_33_ a_i_add_term2_34_ a_i_add_term2_35_ a_i_add_term2_36_ a_i_add_term2_37_ a_i_add_term2_38_ a_i_add_term2_39_ a_i_add_term2_40_ a_i_add_term2_41_ a_i_add_term2_42_ a_i_add_term2_43_ a_i_add_term2_44_ a_i_add_term2_45_ a_i_add_term2_46_ a_i_add_term2_47_ a_i_add_term2_48_ a_i_add_term2_49_ a_i_add_term2_50_ a_i_add_term2_51_ a_i_add_term2_52_ a_i_add_term2_53_ a_i_add_term2_54_ a_i_add_term2_55_ a_i_add_term2_56_ a_i_add_term2_57_ a_i_add_term2_58_ a_i_add_term2_59_ a_i_add_term2_60_ a_sum_0_ a_sum_1_ a_sum_2_ a_sum_3_ a_sum_4_ a_sum_5_ a_sum_6_ a_sum_7_ a_sum_8_ a_sum_9_ a_sum_10_ a_sum_11_ a_sum_12_ a_sum_13_ a_sum_14_ a_sum_15_ a_sum_16_ a_sum_17_ a_sum_18_ a_sum_19_ a_sum_20_ a_sum_21_ a_sum_22_ a_sum_23_ a_sum_24_ a_sum_25_ a_sum_26_ a_sum_27_ a_sum_28_ a_sum_29_ a_sum_30_ a_sum_31_ a_sum_32_ a_sum_33_ a_sum_34_ a_sum_35_ a_sum_36_ a_sum_37_ a_sum_38_ a_sum_39_ a_sum_40_ a_sum_41_ a_sum_42_ a_sum_43_ a_sum_44_ a_sum_45_ a_sum_46_ a_sum_47_ a_sum_48_ a_sum_49_ a_sum_50_ a_sum_51_ a_sum_52_ a_sum_53_ a_sum_54_ a_sum_55_ a_sum_56_ a_sum_57_ a_sum_58_ a_sum_59_ a_sum_60_ a_cout
ABUFX2_1 [w_cout_15_] cout d_lut_BUFX2
ABUFX2_2 [rca_inst.fa0.o_sum] sum_0_ d_lut_BUFX2
ABUFX2_3 [rca_inst.fa_1_.o_sum] sum_1_ d_lut_BUFX2
ABUFX2_4 [rca_inst.fa_2_.o_sum] sum_2_ d_lut_BUFX2
ABUFX2_5 [rca_inst.fa3.o_sum] sum_3_ d_lut_BUFX2
ABUFX2_6 [_0__4_] sum_4_ d_lut_BUFX2
ABUFX2_7 [_0__5_] sum_5_ d_lut_BUFX2
ABUFX2_8 [_0__6_] sum_6_ d_lut_BUFX2
ABUFX2_9 [_0__7_] sum_7_ d_lut_BUFX2
ABUFX2_10 [_0__8_] sum_8_ d_lut_BUFX2
ABUFX2_11 [_0__9_] sum_9_ d_lut_BUFX2
ABUFX2_12 [_0__10_] sum_10_ d_lut_BUFX2
ABUFX2_13 [_0__11_] sum_11_ d_lut_BUFX2
ABUFX2_14 [_0__12_] sum_12_ d_lut_BUFX2
ABUFX2_15 [_0__13_] sum_13_ d_lut_BUFX2
ABUFX2_16 [_0__14_] sum_14_ d_lut_BUFX2
ABUFX2_17 [_0__15_] sum_15_ d_lut_BUFX2
ABUFX2_18 [_0__16_] sum_16_ d_lut_BUFX2
ABUFX2_19 [_0__17_] sum_17_ d_lut_BUFX2
ABUFX2_20 [_0__18_] sum_18_ d_lut_BUFX2
ABUFX2_21 [_0__19_] sum_19_ d_lut_BUFX2
ABUFX2_22 [_0__20_] sum_20_ d_lut_BUFX2
ABUFX2_23 [_0__21_] sum_21_ d_lut_BUFX2
ABUFX2_24 [_0__22_] sum_22_ d_lut_BUFX2
ABUFX2_25 [_0__23_] sum_23_ d_lut_BUFX2
ABUFX2_26 [_0__24_] sum_24_ d_lut_BUFX2
ABUFX2_27 [_0__25_] sum_25_ d_lut_BUFX2
ABUFX2_28 [_0__26_] sum_26_ d_lut_BUFX2
ABUFX2_29 [_0__27_] sum_27_ d_lut_BUFX2
ABUFX2_30 [_0__28_] sum_28_ d_lut_BUFX2
ABUFX2_31 [_0__29_] sum_29_ d_lut_BUFX2
ABUFX2_32 [_0__30_] sum_30_ d_lut_BUFX2
ABUFX2_33 [_0__31_] sum_31_ d_lut_BUFX2
ABUFX2_34 [_0__32_] sum_32_ d_lut_BUFX2
ABUFX2_35 [_0__33_] sum_33_ d_lut_BUFX2
ABUFX2_36 [_0__34_] sum_34_ d_lut_BUFX2
ABUFX2_37 [_0__35_] sum_35_ d_lut_BUFX2
ABUFX2_38 [_0__36_] sum_36_ d_lut_BUFX2
ABUFX2_39 [_0__37_] sum_37_ d_lut_BUFX2
ABUFX2_40 [_0__38_] sum_38_ d_lut_BUFX2
ABUFX2_41 [_0__39_] sum_39_ d_lut_BUFX2
ABUFX2_42 [_0__40_] sum_40_ d_lut_BUFX2
ABUFX2_43 [_0__41_] sum_41_ d_lut_BUFX2
ABUFX2_44 [_0__42_] sum_42_ d_lut_BUFX2
ABUFX2_45 [_0__43_] sum_43_ d_lut_BUFX2
ABUFX2_46 [_0__44_] sum_44_ d_lut_BUFX2
ABUFX2_47 [_0__45_] sum_45_ d_lut_BUFX2
ABUFX2_48 [_0__46_] sum_46_ d_lut_BUFX2
ABUFX2_49 [_0__47_] sum_47_ d_lut_BUFX2
ABUFX2_50 [_0__48_] sum_48_ d_lut_BUFX2
ABUFX2_51 [_0__49_] sum_49_ d_lut_BUFX2
ABUFX2_52 [_0__50_] sum_50_ d_lut_BUFX2
ABUFX2_53 [_0__51_] sum_51_ d_lut_BUFX2
ABUFX2_54 [_0__52_] sum_52_ d_lut_BUFX2
ABUFX2_55 [_0__53_] sum_53_ d_lut_BUFX2
ABUFX2_56 [_0__54_] sum_54_ d_lut_BUFX2
ABUFX2_57 [_0__55_] sum_55_ d_lut_BUFX2
ABUFX2_58 [_0__56_] sum_56_ d_lut_BUFX2
ABUFX2_59 [_0__57_] sum_57_ d_lut_BUFX2
ABUFX2_60 [_0__58_] sum_58_ d_lut_BUFX2
ABUFX2_61 [_0__59_] sum_59_ d_lut_BUFX2
ABUFX2_62 [csa_inst.mux0_sum.y] sum_60_ d_lut_BUFX2
AINVX1_1 [_1_] _85_ d_lut_INVX1
ANAND2X1_1 [_2_ rca_inst.cout] _86_ d_lut_NAND2X1
AOAI21X1_1 [rca_inst.cout _85_ _86_] w_cout_1_ d_lut_OAI21X1
AINVX1_2 [_3__0_] _87_ d_lut_INVX1
ANAND2X1_2 [_4__0_ rca_inst.cout] _88_ d_lut_NAND2X1
AOAI21X1_2 [rca_inst.cout _87_ _88_] _0__4_ d_lut_OAI21X1
AINVX1_3 [_3__1_] _89_ d_lut_INVX1
ANAND2X1_3 [rca_inst.cout _4__1_] _90_ d_lut_NAND2X1
AOAI21X1_3 [rca_inst.cout _89_ _90_] _0__5_ d_lut_OAI21X1
AINVX1_4 [_3__2_] _91_ d_lut_INVX1
ANAND2X1_4 [rca_inst.cout _4__2_] _92_ d_lut_NAND2X1
AOAI21X1_4 [rca_inst.cout _91_ _92_] _0__6_ d_lut_OAI21X1
AINVX1_5 [_3__3_] _93_ d_lut_INVX1
ANAND2X1_5 [rca_inst.cout _4__3_] _94_ d_lut_NAND2X1
AOAI21X1_5 [rca_inst.cout _93_ _94_] _0__7_ d_lut_OAI21X1
AINVX1_6 [gnd] _98_ d_lut_INVX1
AOR2X2_1 [i_add_term2_4_ i_add_term1_4_] _99_ d_lut_OR2X2
ANAND2X1_6 [i_add_term2_4_ i_add_term1_4_] _100_ d_lut_NAND2X1
ANAND3X1_1 [_98_ _100_ _99_] _101_ d_lut_NAND3X1
ANOR2X1_1 [i_add_term2_4_ i_add_term1_4_] _95_ d_lut_NOR2X1
AAND2X2_1 [i_add_term2_4_ i_add_term1_4_] _96_ d_lut_AND2X2
AOAI21X1_6 [_95_ _96_ gnd] _97_ d_lut_OAI21X1
ANAND2X1_7 [_97_ _101_] _3__0_ d_lut_NAND2X1
AOAI21X1_7 [_98_ _95_ _100_] _5__1_ d_lut_OAI21X1
AINVX1_7 [_5__3_] _105_ d_lut_INVX1
AOR2X2_2 [i_add_term2_7_ i_add_term1_7_] _106_ d_lut_OR2X2
ANAND2X1_8 [i_add_term2_7_ i_add_term1_7_] _107_ d_lut_NAND2X1
ANAND3X1_2 [_105_ _107_ _106_] _108_ d_lut_NAND3X1
ANOR2X1_2 [i_add_term2_7_ i_add_term1_7_] _102_ d_lut_NOR2X1
AAND2X2_2 [i_add_term2_7_ i_add_term1_7_] _103_ d_lut_AND2X2
AOAI21X1_8 [_102_ _103_ _5__3_] _104_ d_lut_OAI21X1
ANAND2X1_9 [_104_ _108_] _3__3_ d_lut_NAND2X1
AOAI21X1_9 [_105_ _102_ _107_] _1_ d_lut_OAI21X1
AINVX1_8 [_5__1_] _112_ d_lut_INVX1
AOR2X2_3 [i_add_term2_5_ i_add_term1_5_] _113_ d_lut_OR2X2
ANAND2X1_10 [i_add_term2_5_ i_add_term1_5_] _114_ d_lut_NAND2X1
ANAND3X1_3 [_112_ _114_ _113_] _115_ d_lut_NAND3X1
ANOR2X1_3 [i_add_term2_5_ i_add_term1_5_] _109_ d_lut_NOR2X1
AAND2X2_3 [i_add_term2_5_ i_add_term1_5_] _110_ d_lut_AND2X2
AOAI21X1_10 [_109_ _110_ _5__1_] _111_ d_lut_OAI21X1
ANAND2X1_11 [_111_ _115_] _3__1_ d_lut_NAND2X1
AOAI21X1_11 [_112_ _109_ _114_] _5__2_ d_lut_OAI21X1
AINVX1_9 [_5__2_] _119_ d_lut_INVX1
AOR2X2_4 [i_add_term2_6_ i_add_term1_6_] _120_ d_lut_OR2X2
ANAND2X1_12 [i_add_term2_6_ i_add_term1_6_] _121_ d_lut_NAND2X1
ANAND3X1_4 [_119_ _121_ _120_] _122_ d_lut_NAND3X1
ANOR2X1_4 [i_add_term2_6_ i_add_term1_6_] _116_ d_lut_NOR2X1
AAND2X2_4 [i_add_term2_6_ i_add_term1_6_] _117_ d_lut_AND2X2
AOAI21X1_12 [_116_ _117_ _5__2_] _118_ d_lut_OAI21X1
ANAND2X1_13 [_118_ _122_] _3__2_ d_lut_NAND2X1
AOAI21X1_13 [_119_ _116_ _121_] _5__3_ d_lut_OAI21X1
AINVX1_10 [vdd] _126_ d_lut_INVX1
AOR2X2_5 [i_add_term2_4_ i_add_term1_4_] _127_ d_lut_OR2X2
ANAND2X1_14 [i_add_term2_4_ i_add_term1_4_] _128_ d_lut_NAND2X1
ANAND3X1_5 [_126_ _128_ _127_] _129_ d_lut_NAND3X1
ANOR2X1_5 [i_add_term2_4_ i_add_term1_4_] _123_ d_lut_NOR2X1
AAND2X2_5 [i_add_term2_4_ i_add_term1_4_] _124_ d_lut_AND2X2
AOAI21X1_14 [_123_ _124_ vdd] _125_ d_lut_OAI21X1
ANAND2X1_15 [_125_ _129_] _4__0_ d_lut_NAND2X1
AOAI21X1_15 [_126_ _123_ _128_] _6__1_ d_lut_OAI21X1
AINVX1_11 [_6__3_] _133_ d_lut_INVX1
AOR2X2_6 [i_add_term2_7_ i_add_term1_7_] _134_ d_lut_OR2X2
ANAND2X1_16 [i_add_term2_7_ i_add_term1_7_] _135_ d_lut_NAND2X1
ANAND3X1_6 [_133_ _135_ _134_] _136_ d_lut_NAND3X1
ANOR2X1_6 [i_add_term2_7_ i_add_term1_7_] _130_ d_lut_NOR2X1
AAND2X2_6 [i_add_term2_7_ i_add_term1_7_] _131_ d_lut_AND2X2
AOAI21X1_16 [_130_ _131_ _6__3_] _132_ d_lut_OAI21X1
ANAND2X1_17 [_132_ _136_] _4__3_ d_lut_NAND2X1
AOAI21X1_17 [_133_ _130_ _135_] _2_ d_lut_OAI21X1
AINVX1_12 [_6__1_] _140_ d_lut_INVX1
AOR2X2_7 [i_add_term2_5_ i_add_term1_5_] _141_ d_lut_OR2X2
ANAND2X1_18 [i_add_term2_5_ i_add_term1_5_] _142_ d_lut_NAND2X1
ANAND3X1_7 [_140_ _142_ _141_] _143_ d_lut_NAND3X1
ANOR2X1_7 [i_add_term2_5_ i_add_term1_5_] _137_ d_lut_NOR2X1
AAND2X2_7 [i_add_term2_5_ i_add_term1_5_] _138_ d_lut_AND2X2
AOAI21X1_18 [_137_ _138_ _6__1_] _139_ d_lut_OAI21X1
ANAND2X1_19 [_139_ _143_] _4__1_ d_lut_NAND2X1
AOAI21X1_19 [_140_ _137_ _142_] _6__2_ d_lut_OAI21X1
AINVX1_13 [_6__2_] _147_ d_lut_INVX1
AOR2X2_8 [i_add_term2_6_ i_add_term1_6_] _148_ d_lut_OR2X2
ANAND2X1_20 [i_add_term2_6_ i_add_term1_6_] _149_ d_lut_NAND2X1
ANAND3X1_8 [_147_ _149_ _148_] _150_ d_lut_NAND3X1
ANOR2X1_8 [i_add_term2_6_ i_add_term1_6_] _144_ d_lut_NOR2X1
AAND2X2_8 [i_add_term2_6_ i_add_term1_6_] _145_ d_lut_AND2X2
AOAI21X1_20 [_144_ _145_ _6__2_] _146_ d_lut_OAI21X1
ANAND2X1_21 [_146_ _150_] _4__2_ d_lut_NAND2X1
AOAI21X1_21 [_147_ _144_ _149_] _6__3_ d_lut_OAI21X1
AINVX1_14 [_7_] _151_ d_lut_INVX1
ANAND2X1_22 [_8_ w_cout_1_] _152_ d_lut_NAND2X1
AOAI21X1_22 [w_cout_1_ _151_ _152_] w_cout_2_ d_lut_OAI21X1
AINVX1_15 [_9__0_] _153_ d_lut_INVX1
ANAND2X1_23 [_10__0_ w_cout_1_] _154_ d_lut_NAND2X1
AOAI21X1_23 [w_cout_1_ _153_ _154_] _0__8_ d_lut_OAI21X1
AINVX1_16 [_9__1_] _155_ d_lut_INVX1
ANAND2X1_24 [w_cout_1_ _10__1_] _156_ d_lut_NAND2X1
AOAI21X1_24 [w_cout_1_ _155_ _156_] _0__9_ d_lut_OAI21X1
AINVX1_17 [_9__2_] _157_ d_lut_INVX1
ANAND2X1_25 [w_cout_1_ _10__2_] _158_ d_lut_NAND2X1
AOAI21X1_25 [w_cout_1_ _157_ _158_] _0__10_ d_lut_OAI21X1
AINVX1_18 [_9__3_] _159_ d_lut_INVX1
ANAND2X1_26 [w_cout_1_ _10__3_] _160_ d_lut_NAND2X1
AOAI21X1_26 [w_cout_1_ _159_ _160_] _0__11_ d_lut_OAI21X1
AINVX1_19 [gnd] _164_ d_lut_INVX1
AOR2X2_9 [i_add_term2_8_ i_add_term1_8_] _165_ d_lut_OR2X2
ANAND2X1_27 [i_add_term2_8_ i_add_term1_8_] _166_ d_lut_NAND2X1
ANAND3X1_9 [_164_ _166_ _165_] _167_ d_lut_NAND3X1
ANOR2X1_9 [i_add_term2_8_ i_add_term1_8_] _161_ d_lut_NOR2X1
AAND2X2_9 [i_add_term2_8_ i_add_term1_8_] _162_ d_lut_AND2X2
AOAI21X1_27 [_161_ _162_ gnd] _163_ d_lut_OAI21X1
ANAND2X1_28 [_163_ _167_] _9__0_ d_lut_NAND2X1
AOAI21X1_28 [_164_ _161_ _166_] _11__1_ d_lut_OAI21X1
AINVX1_20 [_11__3_] _171_ d_lut_INVX1
AOR2X2_10 [i_add_term2_11_ i_add_term1_11_] _172_ d_lut_OR2X2
ANAND2X1_29 [i_add_term2_11_ i_add_term1_11_] _173_ d_lut_NAND2X1
ANAND3X1_10 [_171_ _173_ _172_] _174_ d_lut_NAND3X1
ANOR2X1_10 [i_add_term2_11_ i_add_term1_11_] _168_ d_lut_NOR2X1
AAND2X2_10 [i_add_term2_11_ i_add_term1_11_] _169_ d_lut_AND2X2
AOAI21X1_29 [_168_ _169_ _11__3_] _170_ d_lut_OAI21X1
ANAND2X1_30 [_170_ _174_] _9__3_ d_lut_NAND2X1
AOAI21X1_30 [_171_ _168_ _173_] _7_ d_lut_OAI21X1
AINVX1_21 [_11__1_] _178_ d_lut_INVX1
AOR2X2_11 [i_add_term2_9_ i_add_term1_9_] _179_ d_lut_OR2X2
ANAND2X1_31 [i_add_term2_9_ i_add_term1_9_] _180_ d_lut_NAND2X1
ANAND3X1_11 [_178_ _180_ _179_] _181_ d_lut_NAND3X1
ANOR2X1_11 [i_add_term2_9_ i_add_term1_9_] _175_ d_lut_NOR2X1
AAND2X2_11 [i_add_term2_9_ i_add_term1_9_] _176_ d_lut_AND2X2
AOAI21X1_31 [_175_ _176_ _11__1_] _177_ d_lut_OAI21X1
ANAND2X1_32 [_177_ _181_] _9__1_ d_lut_NAND2X1
AOAI21X1_32 [_178_ _175_ _180_] _11__2_ d_lut_OAI21X1
AINVX1_22 [_11__2_] _185_ d_lut_INVX1
AOR2X2_12 [i_add_term2_10_ i_add_term1_10_] _186_ d_lut_OR2X2
ANAND2X1_33 [i_add_term2_10_ i_add_term1_10_] _187_ d_lut_NAND2X1
ANAND3X1_12 [_185_ _187_ _186_] _188_ d_lut_NAND3X1
ANOR2X1_12 [i_add_term2_10_ i_add_term1_10_] _182_ d_lut_NOR2X1
AAND2X2_12 [i_add_term2_10_ i_add_term1_10_] _183_ d_lut_AND2X2
AOAI21X1_33 [_182_ _183_ _11__2_] _184_ d_lut_OAI21X1
ANAND2X1_34 [_184_ _188_] _9__2_ d_lut_NAND2X1
AOAI21X1_34 [_185_ _182_ _187_] _11__3_ d_lut_OAI21X1
AINVX1_23 [vdd] _192_ d_lut_INVX1
AOR2X2_13 [i_add_term2_8_ i_add_term1_8_] _193_ d_lut_OR2X2
ANAND2X1_35 [i_add_term2_8_ i_add_term1_8_] _194_ d_lut_NAND2X1
ANAND3X1_13 [_192_ _194_ _193_] _195_ d_lut_NAND3X1
ANOR2X1_13 [i_add_term2_8_ i_add_term1_8_] _189_ d_lut_NOR2X1
AAND2X2_13 [i_add_term2_8_ i_add_term1_8_] _190_ d_lut_AND2X2
AOAI21X1_35 [_189_ _190_ vdd] _191_ d_lut_OAI21X1
ANAND2X1_36 [_191_ _195_] _10__0_ d_lut_NAND2X1
AOAI21X1_36 [_192_ _189_ _194_] _12__1_ d_lut_OAI21X1
AINVX1_24 [_12__3_] _199_ d_lut_INVX1
AOR2X2_14 [i_add_term2_11_ i_add_term1_11_] _200_ d_lut_OR2X2
ANAND2X1_37 [i_add_term2_11_ i_add_term1_11_] _201_ d_lut_NAND2X1
ANAND3X1_14 [_199_ _201_ _200_] _202_ d_lut_NAND3X1
ANOR2X1_14 [i_add_term2_11_ i_add_term1_11_] _196_ d_lut_NOR2X1
AAND2X2_14 [i_add_term2_11_ i_add_term1_11_] _197_ d_lut_AND2X2
AOAI21X1_37 [_196_ _197_ _12__3_] _198_ d_lut_OAI21X1
ANAND2X1_38 [_198_ _202_] _10__3_ d_lut_NAND2X1
AOAI21X1_38 [_199_ _196_ _201_] _8_ d_lut_OAI21X1
AINVX1_25 [_12__1_] _206_ d_lut_INVX1
AOR2X2_15 [i_add_term2_9_ i_add_term1_9_] _207_ d_lut_OR2X2
ANAND2X1_39 [i_add_term2_9_ i_add_term1_9_] _208_ d_lut_NAND2X1
ANAND3X1_15 [_206_ _208_ _207_] _209_ d_lut_NAND3X1
ANOR2X1_15 [i_add_term2_9_ i_add_term1_9_] _203_ d_lut_NOR2X1
AAND2X2_15 [i_add_term2_9_ i_add_term1_9_] _204_ d_lut_AND2X2
AOAI21X1_39 [_203_ _204_ _12__1_] _205_ d_lut_OAI21X1
ANAND2X1_40 [_205_ _209_] _10__1_ d_lut_NAND2X1
AOAI21X1_40 [_206_ _203_ _208_] _12__2_ d_lut_OAI21X1
AINVX1_26 [_12__2_] _213_ d_lut_INVX1
AOR2X2_16 [i_add_term2_10_ i_add_term1_10_] _214_ d_lut_OR2X2
ANAND2X1_41 [i_add_term2_10_ i_add_term1_10_] _215_ d_lut_NAND2X1
ANAND3X1_16 [_213_ _215_ _214_] _216_ d_lut_NAND3X1
ANOR2X1_16 [i_add_term2_10_ i_add_term1_10_] _210_ d_lut_NOR2X1
AAND2X2_16 [i_add_term2_10_ i_add_term1_10_] _211_ d_lut_AND2X2
AOAI21X1_41 [_210_ _211_ _12__2_] _212_ d_lut_OAI21X1
ANAND2X1_42 [_212_ _216_] _10__2_ d_lut_NAND2X1
AOAI21X1_42 [_213_ _210_ _215_] _12__3_ d_lut_OAI21X1
AINVX1_27 [_13_] _217_ d_lut_INVX1
ANAND2X1_43 [_14_ w_cout_2_] _218_ d_lut_NAND2X1
AOAI21X1_43 [w_cout_2_ _217_ _218_] w_cout_3_ d_lut_OAI21X1
AINVX1_28 [_15__0_] _219_ d_lut_INVX1
ANAND2X1_44 [_16__0_ w_cout_2_] _220_ d_lut_NAND2X1
AOAI21X1_44 [w_cout_2_ _219_ _220_] _0__12_ d_lut_OAI21X1
AINVX1_29 [_15__1_] _221_ d_lut_INVX1
ANAND2X1_45 [w_cout_2_ _16__1_] _222_ d_lut_NAND2X1
AOAI21X1_45 [w_cout_2_ _221_ _222_] _0__13_ d_lut_OAI21X1
AINVX1_30 [_15__2_] _223_ d_lut_INVX1
ANAND2X1_46 [w_cout_2_ _16__2_] _224_ d_lut_NAND2X1
AOAI21X1_46 [w_cout_2_ _223_ _224_] _0__14_ d_lut_OAI21X1
AINVX1_31 [_15__3_] _225_ d_lut_INVX1
ANAND2X1_47 [w_cout_2_ _16__3_] _226_ d_lut_NAND2X1
AOAI21X1_47 [w_cout_2_ _225_ _226_] _0__15_ d_lut_OAI21X1
AINVX1_32 [gnd] _230_ d_lut_INVX1
AOR2X2_17 [i_add_term2_12_ i_add_term1_12_] _231_ d_lut_OR2X2
ANAND2X1_48 [i_add_term2_12_ i_add_term1_12_] _232_ d_lut_NAND2X1
ANAND3X1_17 [_230_ _232_ _231_] _233_ d_lut_NAND3X1
ANOR2X1_17 [i_add_term2_12_ i_add_term1_12_] _227_ d_lut_NOR2X1
AAND2X2_17 [i_add_term2_12_ i_add_term1_12_] _228_ d_lut_AND2X2
AOAI21X1_48 [_227_ _228_ gnd] _229_ d_lut_OAI21X1
ANAND2X1_49 [_229_ _233_] _15__0_ d_lut_NAND2X1
AOAI21X1_49 [_230_ _227_ _232_] _17__1_ d_lut_OAI21X1
AINVX1_33 [_17__3_] _237_ d_lut_INVX1
AOR2X2_18 [i_add_term2_15_ i_add_term1_15_] _238_ d_lut_OR2X2
ANAND2X1_50 [i_add_term2_15_ i_add_term1_15_] _239_ d_lut_NAND2X1
ANAND3X1_18 [_237_ _239_ _238_] _240_ d_lut_NAND3X1
ANOR2X1_18 [i_add_term2_15_ i_add_term1_15_] _234_ d_lut_NOR2X1
AAND2X2_18 [i_add_term2_15_ i_add_term1_15_] _235_ d_lut_AND2X2
AOAI21X1_50 [_234_ _235_ _17__3_] _236_ d_lut_OAI21X1
ANAND2X1_51 [_236_ _240_] _15__3_ d_lut_NAND2X1
AOAI21X1_51 [_237_ _234_ _239_] _13_ d_lut_OAI21X1
AINVX1_34 [_17__1_] _244_ d_lut_INVX1
AOR2X2_19 [i_add_term2_13_ i_add_term1_13_] _245_ d_lut_OR2X2
ANAND2X1_52 [i_add_term2_13_ i_add_term1_13_] _246_ d_lut_NAND2X1
ANAND3X1_19 [_244_ _246_ _245_] _247_ d_lut_NAND3X1
ANOR2X1_19 [i_add_term2_13_ i_add_term1_13_] _241_ d_lut_NOR2X1
AAND2X2_19 [i_add_term2_13_ i_add_term1_13_] _242_ d_lut_AND2X2
AOAI21X1_52 [_241_ _242_ _17__1_] _243_ d_lut_OAI21X1
ANAND2X1_53 [_243_ _247_] _15__1_ d_lut_NAND2X1
AOAI21X1_53 [_244_ _241_ _246_] _17__2_ d_lut_OAI21X1
AINVX1_35 [_17__2_] _251_ d_lut_INVX1
AOR2X2_20 [i_add_term2_14_ i_add_term1_14_] _252_ d_lut_OR2X2
ANAND2X1_54 [i_add_term2_14_ i_add_term1_14_] _253_ d_lut_NAND2X1
ANAND3X1_20 [_251_ _253_ _252_] _254_ d_lut_NAND3X1
ANOR2X1_20 [i_add_term2_14_ i_add_term1_14_] _248_ d_lut_NOR2X1
AAND2X2_20 [i_add_term2_14_ i_add_term1_14_] _249_ d_lut_AND2X2
AOAI21X1_54 [_248_ _249_ _17__2_] _250_ d_lut_OAI21X1
ANAND2X1_55 [_250_ _254_] _15__2_ d_lut_NAND2X1
AOAI21X1_55 [_251_ _248_ _253_] _17__3_ d_lut_OAI21X1
AINVX1_36 [vdd] _258_ d_lut_INVX1
AOR2X2_21 [i_add_term2_12_ i_add_term1_12_] _259_ d_lut_OR2X2
ANAND2X1_56 [i_add_term2_12_ i_add_term1_12_] _260_ d_lut_NAND2X1
ANAND3X1_21 [_258_ _260_ _259_] _261_ d_lut_NAND3X1
ANOR2X1_21 [i_add_term2_12_ i_add_term1_12_] _255_ d_lut_NOR2X1
AAND2X2_21 [i_add_term2_12_ i_add_term1_12_] _256_ d_lut_AND2X2
AOAI21X1_56 [_255_ _256_ vdd] _257_ d_lut_OAI21X1
ANAND2X1_57 [_257_ _261_] _16__0_ d_lut_NAND2X1
AOAI21X1_57 [_258_ _255_ _260_] _18__1_ d_lut_OAI21X1
AINVX1_37 [_18__3_] _265_ d_lut_INVX1
AOR2X2_22 [i_add_term2_15_ i_add_term1_15_] _266_ d_lut_OR2X2
ANAND2X1_58 [i_add_term2_15_ i_add_term1_15_] _267_ d_lut_NAND2X1
ANAND3X1_22 [_265_ _267_ _266_] _268_ d_lut_NAND3X1
ANOR2X1_22 [i_add_term2_15_ i_add_term1_15_] _262_ d_lut_NOR2X1
AAND2X2_22 [i_add_term2_15_ i_add_term1_15_] _263_ d_lut_AND2X2
AOAI21X1_58 [_262_ _263_ _18__3_] _264_ d_lut_OAI21X1
ANAND2X1_59 [_264_ _268_] _16__3_ d_lut_NAND2X1
AOAI21X1_59 [_265_ _262_ _267_] _14_ d_lut_OAI21X1
AINVX1_38 [_18__1_] _272_ d_lut_INVX1
AOR2X2_23 [i_add_term2_13_ i_add_term1_13_] _273_ d_lut_OR2X2
ANAND2X1_60 [i_add_term2_13_ i_add_term1_13_] _274_ d_lut_NAND2X1
ANAND3X1_23 [_272_ _274_ _273_] _275_ d_lut_NAND3X1
ANOR2X1_23 [i_add_term2_13_ i_add_term1_13_] _269_ d_lut_NOR2X1
AAND2X2_23 [i_add_term2_13_ i_add_term1_13_] _270_ d_lut_AND2X2
AOAI21X1_60 [_269_ _270_ _18__1_] _271_ d_lut_OAI21X1
ANAND2X1_61 [_271_ _275_] _16__1_ d_lut_NAND2X1
AOAI21X1_61 [_272_ _269_ _274_] _18__2_ d_lut_OAI21X1
AINVX1_39 [_18__2_] _279_ d_lut_INVX1
AOR2X2_24 [i_add_term2_14_ i_add_term1_14_] _280_ d_lut_OR2X2
ANAND2X1_62 [i_add_term2_14_ i_add_term1_14_] _281_ d_lut_NAND2X1
ANAND3X1_24 [_279_ _281_ _280_] _282_ d_lut_NAND3X1
ANOR2X1_24 [i_add_term2_14_ i_add_term1_14_] _276_ d_lut_NOR2X1
AAND2X2_24 [i_add_term2_14_ i_add_term1_14_] _277_ d_lut_AND2X2
AOAI21X1_62 [_276_ _277_ _18__2_] _278_ d_lut_OAI21X1
ANAND2X1_63 [_278_ _282_] _16__2_ d_lut_NAND2X1
AOAI21X1_63 [_279_ _276_ _281_] _18__3_ d_lut_OAI21X1
AINVX1_40 [_19_] _283_ d_lut_INVX1
ANAND2X1_64 [_20_ w_cout_3_] _284_ d_lut_NAND2X1
AOAI21X1_64 [w_cout_3_ _283_ _284_] w_cout_4_ d_lut_OAI21X1
AINVX1_41 [_21__0_] _285_ d_lut_INVX1
ANAND2X1_65 [_22__0_ w_cout_3_] _286_ d_lut_NAND2X1
AOAI21X1_65 [w_cout_3_ _285_ _286_] _0__16_ d_lut_OAI21X1
AINVX1_42 [_21__1_] _287_ d_lut_INVX1
ANAND2X1_66 [w_cout_3_ _22__1_] _288_ d_lut_NAND2X1
AOAI21X1_66 [w_cout_3_ _287_ _288_] _0__17_ d_lut_OAI21X1
AINVX1_43 [_21__2_] _289_ d_lut_INVX1
ANAND2X1_67 [w_cout_3_ _22__2_] _290_ d_lut_NAND2X1
AOAI21X1_67 [w_cout_3_ _289_ _290_] _0__18_ d_lut_OAI21X1
AINVX1_44 [_21__3_] _291_ d_lut_INVX1
ANAND2X1_68 [w_cout_3_ _22__3_] _292_ d_lut_NAND2X1
AOAI21X1_68 [w_cout_3_ _291_ _292_] _0__19_ d_lut_OAI21X1
AINVX1_45 [gnd] _296_ d_lut_INVX1
AOR2X2_25 [i_add_term2_16_ i_add_term1_16_] _297_ d_lut_OR2X2
ANAND2X1_69 [i_add_term2_16_ i_add_term1_16_] _298_ d_lut_NAND2X1
ANAND3X1_25 [_296_ _298_ _297_] _299_ d_lut_NAND3X1
ANOR2X1_25 [i_add_term2_16_ i_add_term1_16_] _293_ d_lut_NOR2X1
AAND2X2_25 [i_add_term2_16_ i_add_term1_16_] _294_ d_lut_AND2X2
AOAI21X1_69 [_293_ _294_ gnd] _295_ d_lut_OAI21X1
ANAND2X1_70 [_295_ _299_] _21__0_ d_lut_NAND2X1
AOAI21X1_70 [_296_ _293_ _298_] _23__1_ d_lut_OAI21X1
AINVX1_46 [_23__3_] _303_ d_lut_INVX1
AOR2X2_26 [i_add_term2_19_ i_add_term1_19_] _304_ d_lut_OR2X2
ANAND2X1_71 [i_add_term2_19_ i_add_term1_19_] _305_ d_lut_NAND2X1
ANAND3X1_26 [_303_ _305_ _304_] _306_ d_lut_NAND3X1
ANOR2X1_26 [i_add_term2_19_ i_add_term1_19_] _300_ d_lut_NOR2X1
AAND2X2_26 [i_add_term2_19_ i_add_term1_19_] _301_ d_lut_AND2X2
AOAI21X1_71 [_300_ _301_ _23__3_] _302_ d_lut_OAI21X1
ANAND2X1_72 [_302_ _306_] _21__3_ d_lut_NAND2X1
AOAI21X1_72 [_303_ _300_ _305_] _19_ d_lut_OAI21X1
AINVX1_47 [_23__1_] _310_ d_lut_INVX1
AOR2X2_27 [i_add_term2_17_ i_add_term1_17_] _311_ d_lut_OR2X2
ANAND2X1_73 [i_add_term2_17_ i_add_term1_17_] _312_ d_lut_NAND2X1
ANAND3X1_27 [_310_ _312_ _311_] _313_ d_lut_NAND3X1
ANOR2X1_27 [i_add_term2_17_ i_add_term1_17_] _307_ d_lut_NOR2X1
AAND2X2_27 [i_add_term2_17_ i_add_term1_17_] _308_ d_lut_AND2X2
AOAI21X1_73 [_307_ _308_ _23__1_] _309_ d_lut_OAI21X1
ANAND2X1_74 [_309_ _313_] _21__1_ d_lut_NAND2X1
AOAI21X1_74 [_310_ _307_ _312_] _23__2_ d_lut_OAI21X1
AINVX1_48 [_23__2_] _317_ d_lut_INVX1
AOR2X2_28 [i_add_term2_18_ i_add_term1_18_] _318_ d_lut_OR2X2
ANAND2X1_75 [i_add_term2_18_ i_add_term1_18_] _319_ d_lut_NAND2X1
ANAND3X1_28 [_317_ _319_ _318_] _320_ d_lut_NAND3X1
ANOR2X1_28 [i_add_term2_18_ i_add_term1_18_] _314_ d_lut_NOR2X1
AAND2X2_28 [i_add_term2_18_ i_add_term1_18_] _315_ d_lut_AND2X2
AOAI21X1_75 [_314_ _315_ _23__2_] _316_ d_lut_OAI21X1
ANAND2X1_76 [_316_ _320_] _21__2_ d_lut_NAND2X1
AOAI21X1_76 [_317_ _314_ _319_] _23__3_ d_lut_OAI21X1
AINVX1_49 [vdd] _324_ d_lut_INVX1
AOR2X2_29 [i_add_term2_16_ i_add_term1_16_] _325_ d_lut_OR2X2
ANAND2X1_77 [i_add_term2_16_ i_add_term1_16_] _326_ d_lut_NAND2X1
ANAND3X1_29 [_324_ _326_ _325_] _327_ d_lut_NAND3X1
ANOR2X1_29 [i_add_term2_16_ i_add_term1_16_] _321_ d_lut_NOR2X1
AAND2X2_29 [i_add_term2_16_ i_add_term1_16_] _322_ d_lut_AND2X2
AOAI21X1_77 [_321_ _322_ vdd] _323_ d_lut_OAI21X1
ANAND2X1_78 [_323_ _327_] _22__0_ d_lut_NAND2X1
AOAI21X1_78 [_324_ _321_ _326_] _24__1_ d_lut_OAI21X1
AINVX1_50 [_24__3_] _331_ d_lut_INVX1
AOR2X2_30 [i_add_term2_19_ i_add_term1_19_] _332_ d_lut_OR2X2
ANAND2X1_79 [i_add_term2_19_ i_add_term1_19_] _333_ d_lut_NAND2X1
ANAND3X1_30 [_331_ _333_ _332_] _334_ d_lut_NAND3X1
ANOR2X1_30 [i_add_term2_19_ i_add_term1_19_] _328_ d_lut_NOR2X1
AAND2X2_30 [i_add_term2_19_ i_add_term1_19_] _329_ d_lut_AND2X2
AOAI21X1_79 [_328_ _329_ _24__3_] _330_ d_lut_OAI21X1
ANAND2X1_80 [_330_ _334_] _22__3_ d_lut_NAND2X1
AOAI21X1_80 [_331_ _328_ _333_] _20_ d_lut_OAI21X1
AINVX1_51 [_24__1_] _338_ d_lut_INVX1
AOR2X2_31 [i_add_term2_17_ i_add_term1_17_] _339_ d_lut_OR2X2
ANAND2X1_81 [i_add_term2_17_ i_add_term1_17_] _340_ d_lut_NAND2X1
ANAND3X1_31 [_338_ _340_ _339_] _341_ d_lut_NAND3X1
ANOR2X1_31 [i_add_term2_17_ i_add_term1_17_] _335_ d_lut_NOR2X1
AAND2X2_31 [i_add_term2_17_ i_add_term1_17_] _336_ d_lut_AND2X2
AOAI21X1_81 [_335_ _336_ _24__1_] _337_ d_lut_OAI21X1
ANAND2X1_82 [_337_ _341_] _22__1_ d_lut_NAND2X1
AOAI21X1_82 [_338_ _335_ _340_] _24__2_ d_lut_OAI21X1
AINVX1_52 [_24__2_] _345_ d_lut_INVX1
AOR2X2_32 [i_add_term2_18_ i_add_term1_18_] _346_ d_lut_OR2X2
ANAND2X1_83 [i_add_term2_18_ i_add_term1_18_] _347_ d_lut_NAND2X1
ANAND3X1_32 [_345_ _347_ _346_] _348_ d_lut_NAND3X1
ANOR2X1_32 [i_add_term2_18_ i_add_term1_18_] _342_ d_lut_NOR2X1
AAND2X2_32 [i_add_term2_18_ i_add_term1_18_] _343_ d_lut_AND2X2
AOAI21X1_83 [_342_ _343_ _24__2_] _344_ d_lut_OAI21X1
ANAND2X1_84 [_344_ _348_] _22__2_ d_lut_NAND2X1
AOAI21X1_84 [_345_ _342_ _347_] _24__3_ d_lut_OAI21X1
AINVX1_53 [_25_] _349_ d_lut_INVX1
ANAND2X1_85 [_26_ w_cout_4_] _350_ d_lut_NAND2X1
AOAI21X1_85 [w_cout_4_ _349_ _350_] w_cout_5_ d_lut_OAI21X1
AINVX1_54 [_27__0_] _351_ d_lut_INVX1
ANAND2X1_86 [_28__0_ w_cout_4_] _352_ d_lut_NAND2X1
AOAI21X1_86 [w_cout_4_ _351_ _352_] _0__20_ d_lut_OAI21X1
AINVX1_55 [_27__1_] _353_ d_lut_INVX1
ANAND2X1_87 [w_cout_4_ _28__1_] _354_ d_lut_NAND2X1
AOAI21X1_87 [w_cout_4_ _353_ _354_] _0__21_ d_lut_OAI21X1
AINVX1_56 [_27__2_] _355_ d_lut_INVX1
ANAND2X1_88 [w_cout_4_ _28__2_] _356_ d_lut_NAND2X1
AOAI21X1_88 [w_cout_4_ _355_ _356_] _0__22_ d_lut_OAI21X1
AINVX1_57 [_27__3_] _357_ d_lut_INVX1
ANAND2X1_89 [w_cout_4_ _28__3_] _358_ d_lut_NAND2X1
AOAI21X1_89 [w_cout_4_ _357_ _358_] _0__23_ d_lut_OAI21X1
AINVX1_58 [gnd] _362_ d_lut_INVX1
AOR2X2_33 [i_add_term2_20_ i_add_term1_20_] _363_ d_lut_OR2X2
ANAND2X1_90 [i_add_term2_20_ i_add_term1_20_] _364_ d_lut_NAND2X1
ANAND3X1_33 [_362_ _364_ _363_] _365_ d_lut_NAND3X1
ANOR2X1_33 [i_add_term2_20_ i_add_term1_20_] _359_ d_lut_NOR2X1
AAND2X2_33 [i_add_term2_20_ i_add_term1_20_] _360_ d_lut_AND2X2
AOAI21X1_90 [_359_ _360_ gnd] _361_ d_lut_OAI21X1
ANAND2X1_91 [_361_ _365_] _27__0_ d_lut_NAND2X1
AOAI21X1_91 [_362_ _359_ _364_] _29__1_ d_lut_OAI21X1
AINVX1_59 [_29__3_] _369_ d_lut_INVX1
AOR2X2_34 [i_add_term2_23_ i_add_term1_23_] _370_ d_lut_OR2X2
ANAND2X1_92 [i_add_term2_23_ i_add_term1_23_] _371_ d_lut_NAND2X1
ANAND3X1_34 [_369_ _371_ _370_] _372_ d_lut_NAND3X1
ANOR2X1_34 [i_add_term2_23_ i_add_term1_23_] _366_ d_lut_NOR2X1
AAND2X2_34 [i_add_term2_23_ i_add_term1_23_] _367_ d_lut_AND2X2
AOAI21X1_92 [_366_ _367_ _29__3_] _368_ d_lut_OAI21X1
ANAND2X1_93 [_368_ _372_] _27__3_ d_lut_NAND2X1
AOAI21X1_93 [_369_ _366_ _371_] _25_ d_lut_OAI21X1
AINVX1_60 [_29__1_] _376_ d_lut_INVX1
AOR2X2_35 [i_add_term2_21_ i_add_term1_21_] _377_ d_lut_OR2X2
ANAND2X1_94 [i_add_term2_21_ i_add_term1_21_] _378_ d_lut_NAND2X1
ANAND3X1_35 [_376_ _378_ _377_] _379_ d_lut_NAND3X1
ANOR2X1_35 [i_add_term2_21_ i_add_term1_21_] _373_ d_lut_NOR2X1
AAND2X2_35 [i_add_term2_21_ i_add_term1_21_] _374_ d_lut_AND2X2
AOAI21X1_94 [_373_ _374_ _29__1_] _375_ d_lut_OAI21X1
ANAND2X1_95 [_375_ _379_] _27__1_ d_lut_NAND2X1
AOAI21X1_95 [_376_ _373_ _378_] _29__2_ d_lut_OAI21X1
AINVX1_61 [_29__2_] _383_ d_lut_INVX1
AOR2X2_36 [i_add_term2_22_ i_add_term1_22_] _384_ d_lut_OR2X2
ANAND2X1_96 [i_add_term2_22_ i_add_term1_22_] _385_ d_lut_NAND2X1
ANAND3X1_36 [_383_ _385_ _384_] _386_ d_lut_NAND3X1
ANOR2X1_36 [i_add_term2_22_ i_add_term1_22_] _380_ d_lut_NOR2X1
AAND2X2_36 [i_add_term2_22_ i_add_term1_22_] _381_ d_lut_AND2X2
AOAI21X1_96 [_380_ _381_ _29__2_] _382_ d_lut_OAI21X1
ANAND2X1_97 [_382_ _386_] _27__2_ d_lut_NAND2X1
AOAI21X1_97 [_383_ _380_ _385_] _29__3_ d_lut_OAI21X1
AINVX1_62 [vdd] _390_ d_lut_INVX1
AOR2X2_37 [i_add_term2_20_ i_add_term1_20_] _391_ d_lut_OR2X2
ANAND2X1_98 [i_add_term2_20_ i_add_term1_20_] _392_ d_lut_NAND2X1
ANAND3X1_37 [_390_ _392_ _391_] _393_ d_lut_NAND3X1
ANOR2X1_37 [i_add_term2_20_ i_add_term1_20_] _387_ d_lut_NOR2X1
AAND2X2_37 [i_add_term2_20_ i_add_term1_20_] _388_ d_lut_AND2X2
AOAI21X1_98 [_387_ _388_ vdd] _389_ d_lut_OAI21X1
ANAND2X1_99 [_389_ _393_] _28__0_ d_lut_NAND2X1
AOAI21X1_99 [_390_ _387_ _392_] _30__1_ d_lut_OAI21X1
AINVX1_63 [_30__3_] _397_ d_lut_INVX1
AOR2X2_38 [i_add_term2_23_ i_add_term1_23_] _398_ d_lut_OR2X2
ANAND2X1_100 [i_add_term2_23_ i_add_term1_23_] _399_ d_lut_NAND2X1
ANAND3X1_38 [_397_ _399_ _398_] _400_ d_lut_NAND3X1
ANOR2X1_38 [i_add_term2_23_ i_add_term1_23_] _394_ d_lut_NOR2X1
AAND2X2_38 [i_add_term2_23_ i_add_term1_23_] _395_ d_lut_AND2X2
AOAI21X1_100 [_394_ _395_ _30__3_] _396_ d_lut_OAI21X1
ANAND2X1_101 [_396_ _400_] _28__3_ d_lut_NAND2X1
AOAI21X1_101 [_397_ _394_ _399_] _26_ d_lut_OAI21X1
AINVX1_64 [_30__1_] _404_ d_lut_INVX1
AOR2X2_39 [i_add_term2_21_ i_add_term1_21_] _405_ d_lut_OR2X2
ANAND2X1_102 [i_add_term2_21_ i_add_term1_21_] _406_ d_lut_NAND2X1
ANAND3X1_39 [_404_ _406_ _405_] _407_ d_lut_NAND3X1
ANOR2X1_39 [i_add_term2_21_ i_add_term1_21_] _401_ d_lut_NOR2X1
AAND2X2_39 [i_add_term2_21_ i_add_term1_21_] _402_ d_lut_AND2X2
AOAI21X1_102 [_401_ _402_ _30__1_] _403_ d_lut_OAI21X1
ANAND2X1_103 [_403_ _407_] _28__1_ d_lut_NAND2X1
AOAI21X1_103 [_404_ _401_ _406_] _30__2_ d_lut_OAI21X1
AINVX1_65 [_30__2_] _411_ d_lut_INVX1
AOR2X2_40 [i_add_term2_22_ i_add_term1_22_] _412_ d_lut_OR2X2
ANAND2X1_104 [i_add_term2_22_ i_add_term1_22_] _413_ d_lut_NAND2X1
ANAND3X1_40 [_411_ _413_ _412_] _414_ d_lut_NAND3X1
ANOR2X1_40 [i_add_term2_22_ i_add_term1_22_] _408_ d_lut_NOR2X1
AAND2X2_40 [i_add_term2_22_ i_add_term1_22_] _409_ d_lut_AND2X2
AOAI21X1_104 [_408_ _409_ _30__2_] _410_ d_lut_OAI21X1
ANAND2X1_105 [_410_ _414_] _28__2_ d_lut_NAND2X1
AOAI21X1_105 [_411_ _408_ _413_] _30__3_ d_lut_OAI21X1
AINVX1_66 [_31_] _415_ d_lut_INVX1
ANAND2X1_106 [_32_ w_cout_5_] _416_ d_lut_NAND2X1
AOAI21X1_106 [w_cout_5_ _415_ _416_] w_cout_6_ d_lut_OAI21X1
AINVX1_67 [_33__0_] _417_ d_lut_INVX1
ANAND2X1_107 [_34__0_ w_cout_5_] _418_ d_lut_NAND2X1
AOAI21X1_107 [w_cout_5_ _417_ _418_] _0__24_ d_lut_OAI21X1
AINVX1_68 [_33__1_] _419_ d_lut_INVX1
ANAND2X1_108 [w_cout_5_ _34__1_] _420_ d_lut_NAND2X1
AOAI21X1_108 [w_cout_5_ _419_ _420_] _0__25_ d_lut_OAI21X1
AINVX1_69 [_33__2_] _421_ d_lut_INVX1
ANAND2X1_109 [w_cout_5_ _34__2_] _422_ d_lut_NAND2X1
AOAI21X1_109 [w_cout_5_ _421_ _422_] _0__26_ d_lut_OAI21X1
AINVX1_70 [_33__3_] _423_ d_lut_INVX1
ANAND2X1_110 [w_cout_5_ _34__3_] _424_ d_lut_NAND2X1
AOAI21X1_110 [w_cout_5_ _423_ _424_] _0__27_ d_lut_OAI21X1
AINVX1_71 [gnd] _428_ d_lut_INVX1
AOR2X2_41 [i_add_term2_24_ i_add_term1_24_] _429_ d_lut_OR2X2
ANAND2X1_111 [i_add_term2_24_ i_add_term1_24_] _430_ d_lut_NAND2X1
ANAND3X1_41 [_428_ _430_ _429_] _431_ d_lut_NAND3X1
ANOR2X1_41 [i_add_term2_24_ i_add_term1_24_] _425_ d_lut_NOR2X1