*SPICE netlist created from BLIF module csa_63bit by blif2BSpice
.include /usr/local/share/qflow/tech/osu035/osu035_stdcells.sp
.subckt csa_63bit vdd gnd i_add_term1[0] i_add_term1[1] i_add_term1[2] i_add_term1[3] i_add_term1[4] i_add_term1[5] i_add_term1[6] i_add_term1[7] i_add_term1[8] i_add_term1[9] i_add_term1[10] i_add_term1[11] i_add_term1[12] i_add_term1[13] i_add_term1[14] i_add_term1[15] i_add_term1[16] i_add_term1[17] i_add_term1[18] i_add_term1[19] i_add_term1[20] i_add_term1[21] i_add_term1[22] i_add_term1[23] i_add_term1[24] i_add_term1[25] i_add_term1[26] i_add_term1[27] i_add_term1[28] i_add_term1[29] i_add_term1[30] i_add_term1[31] i_add_term1[32] i_add_term1[33] i_add_term1[34] i_add_term1[35] i_add_term1[36] i_add_term1[37] i_add_term1[38] i_add_term1[39] i_add_term1[40] i_add_term1[41] i_add_term1[42] i_add_term1[43] i_add_term1[44] i_add_term1[45] i_add_term1[46] i_add_term1[47] i_add_term1[48] i_add_term1[49] i_add_term1[50] i_add_term1[51] i_add_term1[52] i_add_term1[53] i_add_term1[54] i_add_term1[55] i_add_term1[56] i_add_term1[57] i_add_term1[58] i_add_term1[59] i_add_term1[60] i_add_term1[61] i_add_term1[62] i_add_term2[0] i_add_term2[1] i_add_term2[2] i_add_term2[3] i_add_term2[4] i_add_term2[5] i_add_term2[6] i_add_term2[7] i_add_term2[8] i_add_term2[9] i_add_term2[10] i_add_term2[11] i_add_term2[12] i_add_term2[13] i_add_term2[14] i_add_term2[15] i_add_term2[16] i_add_term2[17] i_add_term2[18] i_add_term2[19] i_add_term2[20] i_add_term2[21] i_add_term2[22] i_add_term2[23] i_add_term2[24] i_add_term2[25] i_add_term2[26] i_add_term2[27] i_add_term2[28] i_add_term2[29] i_add_term2[30] i_add_term2[31] i_add_term2[32] i_add_term2[33] i_add_term2[34] i_add_term2[35] i_add_term2[36] i_add_term2[37] i_add_term2[38] i_add_term2[39] i_add_term2[40] i_add_term2[41] i_add_term2[42] i_add_term2[43] i_add_term2[44] i_add_term2[45] i_add_term2[46] i_add_term2[47] i_add_term2[48] i_add_term2[49] i_add_term2[50] i_add_term2[51] i_add_term2[52] i_add_term2[53] i_add_term2[54] i_add_term2[55] i_add_term2[56] i_add_term2[57] i_add_term2[58] i_add_term2[59] i_add_term2[60] i_add_term2[61] i_add_term2[62] sum[0] sum[1] sum[2] sum[3] sum[4] sum[5] sum[6] sum[7] sum[8] sum[9] sum[10] sum[11] sum[12] sum[13] sum[14] sum[15] sum[16] sum[17] sum[18] sum[19] sum[20] sum[21] sum[22] sum[23] sum[24] sum[25] sum[26] sum[27] sum[28] sum[29] sum[30] sum[31] sum[32] sum[33] sum[34] sum[35] sum[36] sum[37] sum[38] sum[39] sum[40] sum[41] sum[42] sum[43] sum[44] sum[45] sum[46] sum[47] sum[48] sum[49] sum[50] sum[51] sum[52] sum[53] sum[54] sum[55] sum[56] sum[57] sum[58] sum[59] sum[60] sum[61] sum[62] cout 
XBUFX2_1 vdd gnd w_cout[15] cout BUFX2
XBUFX2_2 vdd gnd rca_inst.fa0.o_sum sum[0] BUFX2
XBUFX2_3 vdd gnd rca_inst.fa[1].o_sum sum[1] BUFX2
XBUFX2_4 vdd gnd rca_inst.fa[2].o_sum sum[2] BUFX2
XBUFX2_5 vdd gnd rca_inst.fa3.o_sum sum[3] BUFX2
XBUFX2_6 vdd gnd _0_[4] sum[4] BUFX2
XBUFX2_7 vdd gnd _0_[5] sum[5] BUFX2
XBUFX2_8 vdd gnd _0_[6] sum[6] BUFX2
XBUFX2_9 vdd gnd _0_[7] sum[7] BUFX2
XBUFX2_10 vdd gnd _0_[8] sum[8] BUFX2
XBUFX2_11 vdd gnd _0_[9] sum[9] BUFX2
XBUFX2_12 vdd gnd _0_[10] sum[10] BUFX2
XBUFX2_13 vdd gnd _0_[11] sum[11] BUFX2
XBUFX2_14 vdd gnd _0_[12] sum[12] BUFX2
XBUFX2_15 vdd gnd _0_[13] sum[13] BUFX2
XBUFX2_16 vdd gnd _0_[14] sum[14] BUFX2
XBUFX2_17 vdd gnd _0_[15] sum[15] BUFX2
XBUFX2_18 vdd gnd _0_[16] sum[16] BUFX2
XBUFX2_19 vdd gnd _0_[17] sum[17] BUFX2
XBUFX2_20 vdd gnd _0_[18] sum[18] BUFX2
XBUFX2_21 vdd gnd _0_[19] sum[19] BUFX2
XBUFX2_22 vdd gnd _0_[20] sum[20] BUFX2
XBUFX2_23 vdd gnd _0_[21] sum[21] BUFX2
XBUFX2_24 vdd gnd _0_[22] sum[22] BUFX2
XBUFX2_25 vdd gnd _0_[23] sum[23] BUFX2
XBUFX2_26 vdd gnd _0_[24] sum[24] BUFX2
XBUFX2_27 vdd gnd _0_[25] sum[25] BUFX2
XBUFX2_28 vdd gnd _0_[26] sum[26] BUFX2
XBUFX2_29 vdd gnd _0_[27] sum[27] BUFX2
XBUFX2_30 vdd gnd _0_[28] sum[28] BUFX2
XBUFX2_31 vdd gnd _0_[29] sum[29] BUFX2
XBUFX2_32 vdd gnd _0_[30] sum[30] BUFX2
XBUFX2_33 vdd gnd _0_[31] sum[31] BUFX2
XBUFX2_34 vdd gnd _0_[32] sum[32] BUFX2
XBUFX2_35 vdd gnd _0_[33] sum[33] BUFX2
XBUFX2_36 vdd gnd _0_[34] sum[34] BUFX2
XBUFX2_37 vdd gnd _0_[35] sum[35] BUFX2
XBUFX2_38 vdd gnd _0_[36] sum[36] BUFX2
XBUFX2_39 vdd gnd _0_[37] sum[37] BUFX2
XBUFX2_40 vdd gnd _0_[38] sum[38] BUFX2
XBUFX2_41 vdd gnd _0_[39] sum[39] BUFX2
XBUFX2_42 vdd gnd _0_[40] sum[40] BUFX2
XBUFX2_43 vdd gnd _0_[41] sum[41] BUFX2
XBUFX2_44 vdd gnd _0_[42] sum[42] BUFX2
XBUFX2_45 vdd gnd _0_[43] sum[43] BUFX2
XBUFX2_46 vdd gnd _0_[44] sum[44] BUFX2
XBUFX2_47 vdd gnd _0_[45] sum[45] BUFX2
XBUFX2_48 vdd gnd _0_[46] sum[46] BUFX2
XBUFX2_49 vdd gnd _0_[47] sum[47] BUFX2
XBUFX2_50 vdd gnd _0_[48] sum[48] BUFX2
XBUFX2_51 vdd gnd _0_[49] sum[49] BUFX2
XBUFX2_52 vdd gnd _0_[50] sum[50] BUFX2
XBUFX2_53 vdd gnd _0_[51] sum[51] BUFX2
XBUFX2_54 vdd gnd _0_[52] sum[52] BUFX2
XBUFX2_55 vdd gnd _0_[53] sum[53] BUFX2
XBUFX2_56 vdd gnd _0_[54] sum[54] BUFX2
XBUFX2_57 vdd gnd _0_[55] sum[55] BUFX2
XBUFX2_58 vdd gnd _0_[56] sum[56] BUFX2
XBUFX2_59 vdd gnd _0_[57] sum[57] BUFX2
XBUFX2_60 vdd gnd _0_[58] sum[58] BUFX2
XBUFX2_61 vdd gnd _0_[59] sum[59] BUFX2
XBUFX2_62 vdd gnd _0_[60] sum[60] BUFX2
XBUFX2_63 vdd gnd _0_[61] sum[61] BUFX2
XBUFX2_64 vdd gnd _0_[62] sum[62] BUFX2
XINVX1_1 _1_ _85_ vdd gnd INVX1
XNAND2X1_1 vdd _86_ gnd _2_ rca_inst.cout NAND2X1
XOAI21X1_1 gnd vdd rca_inst.cout _85_ w_cout[1] _86_ OAI21X1
XINVX1_2 _3_[0] _87_ vdd gnd INVX1
XNAND2X1_2 vdd _88_ gnd _4_[0] rca_inst.cout NAND2X1
XOAI21X1_2 gnd vdd rca_inst.cout _87_ _0_[4] _88_ OAI21X1
XINVX1_3 _3_[1] _89_ vdd gnd INVX1
XNAND2X1_3 vdd _90_ gnd rca_inst.cout _4_[1] NAND2X1
XOAI21X1_3 gnd vdd rca_inst.cout _89_ _0_[5] _90_ OAI21X1
XINVX1_4 _3_[2] _91_ vdd gnd INVX1
XNAND2X1_4 vdd _92_ gnd rca_inst.cout _4_[2] NAND2X1
XOAI21X1_4 gnd vdd rca_inst.cout _91_ _0_[6] _92_ OAI21X1
XINVX1_5 _3_[3] _93_ vdd gnd INVX1
XNAND2X1_5 vdd _94_ gnd rca_inst.cout _4_[3] NAND2X1
XOAI21X1_5 gnd vdd rca_inst.cout _93_ _0_[7] _94_ OAI21X1
XINVX1_6 gnd _98_ vdd gnd INVX1
XOR2X2_1 _99_ i_add_term1[4] vdd gnd i_add_term2[4] OR2X2
XNAND2X1_6 vdd _100_ gnd i_add_term2[4] i_add_term1[4] NAND2X1
XNAND3X1_1 _100_ vdd gnd _98_ _99_ _101_ NAND3X1
XNOR2X1_1 vdd i_add_term1[4] gnd _95_ i_add_term2[4] NOR2X1
XAND2X2_1 vdd gnd i_add_term2[4] i_add_term1[4] _96_ AND2X2
XOAI21X1_6 gnd vdd _95_ _96_ _97_ gnd OAI21X1
XNAND2X1_7 vdd _3_[0] gnd _97_ _101_ NAND2X1
XOAI21X1_7 gnd vdd _98_ _95_ _5_[1] _100_ OAI21X1
XINVX1_7 _5_[3] _105_ vdd gnd INVX1
XOR2X2_2 _106_ i_add_term1[7] vdd gnd i_add_term2[7] OR2X2
XNAND2X1_8 vdd _107_ gnd i_add_term2[7] i_add_term1[7] NAND2X1
XNAND3X1_2 _107_ vdd gnd _105_ _106_ _108_ NAND3X1
XNOR2X1_2 vdd i_add_term1[7] gnd _102_ i_add_term2[7] NOR2X1
XAND2X2_2 vdd gnd i_add_term2[7] i_add_term1[7] _103_ AND2X2
XOAI21X1_8 gnd vdd _102_ _103_ _104_ _5_[3] OAI21X1
XNAND2X1_9 vdd _3_[3] gnd _104_ _108_ NAND2X1
XOAI21X1_9 gnd vdd _105_ _102_ _1_ _107_ OAI21X1
XINVX1_8 _5_[1] _112_ vdd gnd INVX1
XOR2X2_3 _113_ i_add_term1[5] vdd gnd i_add_term2[5] OR2X2
XNAND2X1_10 vdd _114_ gnd i_add_term2[5] i_add_term1[5] NAND2X1
XNAND3X1_3 _114_ vdd gnd _112_ _113_ _115_ NAND3X1
XNOR2X1_3 vdd i_add_term1[5] gnd _109_ i_add_term2[5] NOR2X1
XAND2X2_3 vdd gnd i_add_term2[5] i_add_term1[5] _110_ AND2X2
XOAI21X1_10 gnd vdd _109_ _110_ _111_ _5_[1] OAI21X1
XNAND2X1_11 vdd _3_[1] gnd _111_ _115_ NAND2X1
XOAI21X1_11 gnd vdd _112_ _109_ _5_[2] _114_ OAI21X1
XINVX1_9 _5_[2] _119_ vdd gnd INVX1
XOR2X2_4 _120_ i_add_term1[6] vdd gnd i_add_term2[6] OR2X2
XNAND2X1_12 vdd _121_ gnd i_add_term2[6] i_add_term1[6] NAND2X1
XNAND3X1_4 _121_ vdd gnd _119_ _120_ _122_ NAND3X1
XNOR2X1_4 vdd i_add_term1[6] gnd _116_ i_add_term2[6] NOR2X1
XAND2X2_4 vdd gnd i_add_term2[6] i_add_term1[6] _117_ AND2X2
XOAI21X1_12 gnd vdd _116_ _117_ _118_ _5_[2] OAI21X1
XNAND2X1_13 vdd _3_[2] gnd _118_ _122_ NAND2X1
XOAI21X1_13 gnd vdd _119_ _116_ _5_[3] _121_ OAI21X1
XINVX1_10 vdd _126_ vdd gnd INVX1
XOR2X2_5 _127_ i_add_term1[4] vdd gnd i_add_term2[4] OR2X2
XNAND2X1_14 vdd _128_ gnd i_add_term2[4] i_add_term1[4] NAND2X1
XNAND3X1_5 _128_ vdd gnd _126_ _127_ _129_ NAND3X1
XNOR2X1_5 vdd i_add_term1[4] gnd _123_ i_add_term2[4] NOR2X1
XAND2X2_5 vdd gnd i_add_term2[4] i_add_term1[4] _124_ AND2X2
XOAI21X1_14 gnd vdd _123_ _124_ _125_ vdd OAI21X1
XNAND2X1_15 vdd _4_[0] gnd _125_ _129_ NAND2X1
XOAI21X1_15 gnd vdd _126_ _123_ _6_[1] _128_ OAI21X1
XINVX1_11 _6_[3] _133_ vdd gnd INVX1
XOR2X2_6 _134_ i_add_term1[7] vdd gnd i_add_term2[7] OR2X2
XNAND2X1_16 vdd _135_ gnd i_add_term2[7] i_add_term1[7] NAND2X1
XNAND3X1_6 _135_ vdd gnd _133_ _134_ _136_ NAND3X1
XNOR2X1_6 vdd i_add_term1[7] gnd _130_ i_add_term2[7] NOR2X1
XAND2X2_6 vdd gnd i_add_term2[7] i_add_term1[7] _131_ AND2X2
XOAI21X1_16 gnd vdd _130_ _131_ _132_ _6_[3] OAI21X1
XNAND2X1_17 vdd _4_[3] gnd _132_ _136_ NAND2X1
XOAI21X1_17 gnd vdd _133_ _130_ _2_ _135_ OAI21X1
XINVX1_12 _6_[1] _140_ vdd gnd INVX1
XOR2X2_7 _141_ i_add_term1[5] vdd gnd i_add_term2[5] OR2X2
XNAND2X1_18 vdd _142_ gnd i_add_term2[5] i_add_term1[5] NAND2X1
XNAND3X1_7 _142_ vdd gnd _140_ _141_ _143_ NAND3X1
XNOR2X1_7 vdd i_add_term1[5] gnd _137_ i_add_term2[5] NOR2X1
XAND2X2_7 vdd gnd i_add_term2[5] i_add_term1[5] _138_ AND2X2
XOAI21X1_18 gnd vdd _137_ _138_ _139_ _6_[1] OAI21X1
XNAND2X1_19 vdd _4_[1] gnd _139_ _143_ NAND2X1
XOAI21X1_19 gnd vdd _140_ _137_ _6_[2] _142_ OAI21X1
XINVX1_13 _6_[2] _147_ vdd gnd INVX1
XOR2X2_8 _148_ i_add_term1[6] vdd gnd i_add_term2[6] OR2X2
XNAND2X1_20 vdd _149_ gnd i_add_term2[6] i_add_term1[6] NAND2X1
XNAND3X1_8 _149_ vdd gnd _147_ _148_ _150_ NAND3X1
XNOR2X1_8 vdd i_add_term1[6] gnd _144_ i_add_term2[6] NOR2X1
XAND2X2_8 vdd gnd i_add_term2[6] i_add_term1[6] _145_ AND2X2
XOAI21X1_20 gnd vdd _144_ _145_ _146_ _6_[2] OAI21X1
XNAND2X1_21 vdd _4_[2] gnd _146_ _150_ NAND2X1
XOAI21X1_21 gnd vdd _147_ _144_ _6_[3] _149_ OAI21X1
XINVX1_14 _7_ _151_ vdd gnd INVX1
XNAND2X1_22 vdd _152_ gnd _8_ w_cout[1] NAND2X1
XOAI21X1_22 gnd vdd w_cout[1] _151_ w_cout[2] _152_ OAI21X1
XINVX1_15 _9_[0] _153_ vdd gnd INVX1
XNAND2X1_23 vdd _154_ gnd _10_[0] w_cout[1] NAND2X1
XOAI21X1_23 gnd vdd w_cout[1] _153_ _0_[8] _154_ OAI21X1
XINVX1_16 _9_[1] _155_ vdd gnd INVX1
XNAND2X1_24 vdd _156_ gnd w_cout[1] _10_[1] NAND2X1
XOAI21X1_24 gnd vdd w_cout[1] _155_ _0_[9] _156_ OAI21X1
XINVX1_17 _9_[2] _157_ vdd gnd INVX1
XNAND2X1_25 vdd _158_ gnd w_cout[1] _10_[2] NAND2X1
XOAI21X1_25 gnd vdd w_cout[1] _157_ _0_[10] _158_ OAI21X1
XINVX1_18 _9_[3] _159_ vdd gnd INVX1
XNAND2X1_26 vdd _160_ gnd w_cout[1] _10_[3] NAND2X1
XOAI21X1_26 gnd vdd w_cout[1] _159_ _0_[11] _160_ OAI21X1
XINVX1_19 gnd _164_ vdd gnd INVX1
XOR2X2_9 _165_ i_add_term1[8] vdd gnd i_add_term2[8] OR2X2
XNAND2X1_27 vdd _166_ gnd i_add_term2[8] i_add_term1[8] NAND2X1
XNAND3X1_9 _166_ vdd gnd _164_ _165_ _167_ NAND3X1
XNOR2X1_9 vdd i_add_term1[8] gnd _161_ i_add_term2[8] NOR2X1
XAND2X2_9 vdd gnd i_add_term2[8] i_add_term1[8] _162_ AND2X2
XOAI21X1_27 gnd vdd _161_ _162_ _163_ gnd OAI21X1
XNAND2X1_28 vdd _9_[0] gnd _163_ _167_ NAND2X1
XOAI21X1_28 gnd vdd _164_ _161_ _11_[1] _166_ OAI21X1
XINVX1_20 _11_[3] _171_ vdd gnd INVX1
XOR2X2_10 _172_ i_add_term1[11] vdd gnd i_add_term2[11] OR2X2
XNAND2X1_29 vdd _173_ gnd i_add_term2[11] i_add_term1[11] NAND2X1
XNAND3X1_10 _173_ vdd gnd _171_ _172_ _174_ NAND3X1
XNOR2X1_10 vdd i_add_term1[11] gnd _168_ i_add_term2[11] NOR2X1
XAND2X2_10 vdd gnd i_add_term2[11] i_add_term1[11] _169_ AND2X2
XOAI21X1_29 gnd vdd _168_ _169_ _170_ _11_[3] OAI21X1
XNAND2X1_30 vdd _9_[3] gnd _170_ _174_ NAND2X1
XOAI21X1_30 gnd vdd _171_ _168_ _7_ _173_ OAI21X1
XINVX1_21 _11_[1] _178_ vdd gnd INVX1
XOR2X2_11 _179_ i_add_term1[9] vdd gnd i_add_term2[9] OR2X2
XNAND2X1_31 vdd _180_ gnd i_add_term2[9] i_add_term1[9] NAND2X1
XNAND3X1_11 _180_ vdd gnd _178_ _179_ _181_ NAND3X1
XNOR2X1_11 vdd i_add_term1[9] gnd _175_ i_add_term2[9] NOR2X1
XAND2X2_11 vdd gnd i_add_term2[9] i_add_term1[9] _176_ AND2X2
XOAI21X1_31 gnd vdd _175_ _176_ _177_ _11_[1] OAI21X1
XNAND2X1_32 vdd _9_[1] gnd _177_ _181_ NAND2X1
XOAI21X1_32 gnd vdd _178_ _175_ _11_[2] _180_ OAI21X1
XINVX1_22 _11_[2] _185_ vdd gnd INVX1
XOR2X2_12 _186_ i_add_term1[10] vdd gnd i_add_term2[10] OR2X2
XNAND2X1_33 vdd _187_ gnd i_add_term2[10] i_add_term1[10] NAND2X1
XNAND3X1_12 _187_ vdd gnd _185_ _186_ _188_ NAND3X1
XNOR2X1_12 vdd i_add_term1[10] gnd _182_ i_add_term2[10] NOR2X1
XAND2X2_12 vdd gnd i_add_term2[10] i_add_term1[10] _183_ AND2X2
XOAI21X1_33 gnd vdd _182_ _183_ _184_ _11_[2] OAI21X1
XNAND2X1_34 vdd _9_[2] gnd _184_ _188_ NAND2X1
XOAI21X1_34 gnd vdd _185_ _182_ _11_[3] _187_ OAI21X1
XINVX1_23 vdd _192_ vdd gnd INVX1
XOR2X2_13 _193_ i_add_term1[8] vdd gnd i_add_term2[8] OR2X2
XNAND2X1_35 vdd _194_ gnd i_add_term2[8] i_add_term1[8] NAND2X1
XNAND3X1_13 _194_ vdd gnd _192_ _193_ _195_ NAND3X1
XNOR2X1_13 vdd i_add_term1[8] gnd _189_ i_add_term2[8] NOR2X1
XAND2X2_13 vdd gnd i_add_term2[8] i_add_term1[8] _190_ AND2X2
XOAI21X1_35 gnd vdd _189_ _190_ _191_ vdd OAI21X1
XNAND2X1_36 vdd _10_[0] gnd _191_ _195_ NAND2X1
XOAI21X1_36 gnd vdd _192_ _189_ _12_[1] _194_ OAI21X1
XINVX1_24 _12_[3] _199_ vdd gnd INVX1
XOR2X2_14 _200_ i_add_term1[11] vdd gnd i_add_term2[11] OR2X2
XNAND2X1_37 vdd _201_ gnd i_add_term2[11] i_add_term1[11] NAND2X1
XNAND3X1_14 _201_ vdd gnd _199_ _200_ _202_ NAND3X1
XNOR2X1_14 vdd i_add_term1[11] gnd _196_ i_add_term2[11] NOR2X1
XAND2X2_14 vdd gnd i_add_term2[11] i_add_term1[11] _197_ AND2X2
XOAI21X1_37 gnd vdd _196_ _197_ _198_ _12_[3] OAI21X1
XNAND2X1_38 vdd _10_[3] gnd _198_ _202_ NAND2X1
XOAI21X1_38 gnd vdd _199_ _196_ _8_ _201_ OAI21X1
XINVX1_25 _12_[1] _206_ vdd gnd INVX1
XOR2X2_15 _207_ i_add_term1[9] vdd gnd i_add_term2[9] OR2X2
XNAND2X1_39 vdd _208_ gnd i_add_term2[9] i_add_term1[9] NAND2X1
XNAND3X1_15 _208_ vdd gnd _206_ _207_ _209_ NAND3X1
XNOR2X1_15 vdd i_add_term1[9] gnd _203_ i_add_term2[9] NOR2X1
XAND2X2_15 vdd gnd i_add_term2[9] i_add_term1[9] _204_ AND2X2
XOAI21X1_39 gnd vdd _203_ _204_ _205_ _12_[1] OAI21X1
XNAND2X1_40 vdd _10_[1] gnd _205_ _209_ NAND2X1
XOAI21X1_40 gnd vdd _206_ _203_ _12_[2] _208_ OAI21X1
XINVX1_26 _12_[2] _213_ vdd gnd INVX1
XOR2X2_16 _214_ i_add_term1[10] vdd gnd i_add_term2[10] OR2X2
XNAND2X1_41 vdd _215_ gnd i_add_term2[10] i_add_term1[10] NAND2X1
XNAND3X1_16 _215_ vdd gnd _213_ _214_ _216_ NAND3X1
XNOR2X1_16 vdd i_add_term1[10] gnd _210_ i_add_term2[10] NOR2X1
XAND2X2_16 vdd gnd i_add_term2[10] i_add_term1[10] _211_ AND2X2
XOAI21X1_41 gnd vdd _210_ _211_ _212_ _12_[2] OAI21X1
XNAND2X1_42 vdd _10_[2] gnd _212_ _216_ NAND2X1
XOAI21X1_42 gnd vdd _213_ _210_ _12_[3] _215_ OAI21X1
XINVX1_27 _13_ _217_ vdd gnd INVX1
XNAND2X1_43 vdd _218_ gnd _14_ w_cout[2] NAND2X1
XOAI21X1_43 gnd vdd w_cout[2] _217_ w_cout[3] _218_ OAI21X1
XINVX1_28 _15_[0] _219_ vdd gnd INVX1
XNAND2X1_44 vdd _220_ gnd _16_[0] w_cout[2] NAND2X1
XOAI21X1_44 gnd vdd w_cout[2] _219_ _0_[12] _220_ OAI21X1
XINVX1_29 _15_[1] _221_ vdd gnd INVX1
XNAND2X1_45 vdd _222_ gnd w_cout[2] _16_[1] NAND2X1
XOAI21X1_45 gnd vdd w_cout[2] _221_ _0_[13] _222_ OAI21X1
XINVX1_30 _15_[2] _223_ vdd gnd INVX1
XNAND2X1_46 vdd _224_ gnd w_cout[2] _16_[2] NAND2X1
XOAI21X1_46 gnd vdd w_cout[2] _223_ _0_[14] _224_ OAI21X1
XINVX1_31 _15_[3] _225_ vdd gnd INVX1
XNAND2X1_47 vdd _226_ gnd w_cout[2] _16_[3] NAND2X1
XOAI21X1_47 gnd vdd w_cout[2] _225_ _0_[15] _226_ OAI21X1
XINVX1_32 gnd _230_ vdd gnd INVX1
XOR2X2_17 _231_ i_add_term1[12] vdd gnd i_add_term2[12] OR2X2
XNAND2X1_48 vdd _232_ gnd i_add_term2[12] i_add_term1[12] NAND2X1
XNAND3X1_17 _232_ vdd gnd _230_ _231_ _233_ NAND3X1
XNOR2X1_17 vdd i_add_term1[12] gnd _227_ i_add_term2[12] NOR2X1
XAND2X2_17 vdd gnd i_add_term2[12] i_add_term1[12] _228_ AND2X2
XOAI21X1_48 gnd vdd _227_ _228_ _229_ gnd OAI21X1
XNAND2X1_49 vdd _15_[0] gnd _229_ _233_ NAND2X1
XOAI21X1_49 gnd vdd _230_ _227_ _17_[1] _232_ OAI21X1
XINVX1_33 _17_[3] _237_ vdd gnd INVX1
XOR2X2_18 _238_ i_add_term1[15] vdd gnd i_add_term2[15] OR2X2
XNAND2X1_50 vdd _239_ gnd i_add_term2[15] i_add_term1[15] NAND2X1
XNAND3X1_18 _239_ vdd gnd _237_ _238_ _240_ NAND3X1
XNOR2X1_18 vdd i_add_term1[15] gnd _234_ i_add_term2[15] NOR2X1
XAND2X2_18 vdd gnd i_add_term2[15] i_add_term1[15] _235_ AND2X2
XOAI21X1_50 gnd vdd _234_ _235_ _236_ _17_[3] OAI21X1
XNAND2X1_51 vdd _15_[3] gnd _236_ _240_ NAND2X1
XOAI21X1_51 gnd vdd _237_ _234_ _13_ _239_ OAI21X1
XINVX1_34 _17_[1] _244_ vdd gnd INVX1
XOR2X2_19 _245_ i_add_term1[13] vdd gnd i_add_term2[13] OR2X2
XNAND2X1_52 vdd _246_ gnd i_add_term2[13] i_add_term1[13] NAND2X1
XNAND3X1_19 _246_ vdd gnd _244_ _245_ _247_ NAND3X1
XNOR2X1_19 vdd i_add_term1[13] gnd _241_ i_add_term2[13] NOR2X1
XAND2X2_19 vdd gnd i_add_term2[13] i_add_term1[13] _242_ AND2X2
XOAI21X1_52 gnd vdd _241_ _242_ _243_ _17_[1] OAI21X1
XNAND2X1_53 vdd _15_[1] gnd _243_ _247_ NAND2X1
XOAI21X1_53 gnd vdd _244_ _241_ _17_[2] _246_ OAI21X1
XINVX1_35 _17_[2] _251_ vdd gnd INVX1
XOR2X2_20 _252_ i_add_term1[14] vdd gnd i_add_term2[14] OR2X2
XNAND2X1_54 vdd _253_ gnd i_add_term2[14] i_add_term1[14] NAND2X1
XNAND3X1_20 _253_ vdd gnd _251_ _252_ _254_ NAND3X1
XNOR2X1_20 vdd i_add_term1[14] gnd _248_ i_add_term2[14] NOR2X1
XAND2X2_20 vdd gnd i_add_term2[14] i_add_term1[14] _249_ AND2X2
XOAI21X1_54 gnd vdd _248_ _249_ _250_ _17_[2] OAI21X1
XNAND2X1_55 vdd _15_[2] gnd _250_ _254_ NAND2X1
XOAI21X1_55 gnd vdd _251_ _248_ _17_[3] _253_ OAI21X1
XINVX1_36 vdd _258_ vdd gnd INVX1
XOR2X2_21 _259_ i_add_term1[12] vdd gnd i_add_term2[12] OR2X2
XNAND2X1_56 vdd _260_ gnd i_add_term2[12] i_add_term1[12] NAND2X1
XNAND3X1_21 _260_ vdd gnd _258_ _259_ _261_ NAND3X1
XNOR2X1_21 vdd i_add_term1[12] gnd _255_ i_add_term2[12] NOR2X1
XAND2X2_21 vdd gnd i_add_term2[12] i_add_term1[12] _256_ AND2X2
XOAI21X1_56 gnd vdd _255_ _256_ _257_ vdd OAI21X1
XNAND2X1_57 vdd _16_[0] gnd _257_ _261_ NAND2X1
XOAI21X1_57 gnd vdd _258_ _255_ _18_[1] _260_ OAI21X1
XINVX1_37 _18_[3] _265_ vdd gnd INVX1
XOR2X2_22 _266_ i_add_term1[15] vdd gnd i_add_term2[15] OR2X2
XNAND2X1_58 vdd _267_ gnd i_add_term2[15] i_add_term1[15] NAND2X1
XNAND3X1_22 _267_ vdd gnd _265_ _266_ _268_ NAND3X1
XNOR2X1_22 vdd i_add_term1[15] gnd _262_ i_add_term2[15] NOR2X1
XAND2X2_22 vdd gnd i_add_term2[15] i_add_term1[15] _263_ AND2X2
XOAI21X1_58 gnd vdd _262_ _263_ _264_ _18_[3] OAI21X1
XNAND2X1_59 vdd _16_[3] gnd _264_ _268_ NAND2X1
XOAI21X1_59 gnd vdd _265_ _262_ _14_ _267_ OAI21X1
XINVX1_38 _18_[1] _272_ vdd gnd INVX1
XOR2X2_23 _273_ i_add_term1[13] vdd gnd i_add_term2[13] OR2X2
XNAND2X1_60 vdd _274_ gnd i_add_term2[13] i_add_term1[13] NAND2X1
XNAND3X1_23 _274_ vdd gnd _272_ _273_ _275_ NAND3X1
XNOR2X1_23 vdd i_add_term1[13] gnd _269_ i_add_term2[13] NOR2X1
XAND2X2_23 vdd gnd i_add_term2[13] i_add_term1[13] _270_ AND2X2
XOAI21X1_60 gnd vdd _269_ _270_ _271_ _18_[1] OAI21X1
XNAND2X1_61 vdd _16_[1] gnd _271_ _275_ NAND2X1
XOAI21X1_61 gnd vdd _272_ _269_ _18_[2] _274_ OAI21X1
XINVX1_39 _18_[2] _279_ vdd gnd INVX1
XOR2X2_24 _280_ i_add_term1[14] vdd gnd i_add_term2[14] OR2X2
XNAND2X1_62 vdd _281_ gnd i_add_term2[14] i_add_term1[14] NAND2X1
XNAND3X1_24 _281_ vdd gnd _279_ _280_ _282_ NAND3X1
XNOR2X1_24 vdd i_add_term1[14] gnd _276_ i_add_term2[14] NOR2X1
XAND2X2_24 vdd gnd i_add_term2[14] i_add_term1[14] _277_ AND2X2
XOAI21X1_62 gnd vdd _276_ _277_ _278_ _18_[2] OAI21X1
XNAND2X1_63 vdd _16_[2] gnd _278_ _282_ NAND2X1
XOAI21X1_63 gnd vdd _279_ _276_ _18_[3] _281_ OAI21X1
XINVX1_40 _19_ _283_ vdd gnd INVX1
XNAND2X1_64 vdd _284_ gnd _20_ w_cout[3] NAND2X1
XOAI21X1_64 gnd vdd w_cout[3] _283_ w_cout[4] _284_ OAI21X1
XINVX1_41 _21_[0] _285_ vdd gnd INVX1
XNAND2X1_65 vdd _286_ gnd _22_[0] w_cout[3] NAND2X1
XOAI21X1_65 gnd vdd w_cout[3] _285_ _0_[16] _286_ OAI21X1
XINVX1_42 _21_[1] _287_ vdd gnd INVX1
XNAND2X1_66 vdd _288_ gnd w_cout[3] _22_[1] NAND2X1
XOAI21X1_66 gnd vdd w_cout[3] _287_ _0_[17] _288_ OAI21X1
XINVX1_43 _21_[2] _289_ vdd gnd INVX1
XNAND2X1_67 vdd _290_ gnd w_cout[3] _22_[2] NAND2X1
XOAI21X1_67 gnd vdd w_cout[3] _289_ _0_[18] _290_ OAI21X1
XINVX1_44 _21_[3] _291_ vdd gnd INVX1
XNAND2X1_68 vdd _292_ gnd w_cout[3] _22_[3] NAND2X1
XOAI21X1_68 gnd vdd w_cout[3] _291_ _0_[19] _292_ OAI21X1
XINVX1_45 gnd _296_ vdd gnd INVX1
XOR2X2_25 _297_ i_add_term1[16] vdd gnd i_add_term2[16] OR2X2
XNAND2X1_69 vdd _298_ gnd i_add_term2[16] i_add_term1[16] NAND2X1
XNAND3X1_25 _298_ vdd gnd _296_ _297_ _299_ NAND3X1
XNOR2X1_25 vdd i_add_term1[16] gnd _293_ i_add_term2[16] NOR2X1
XAND2X2_25 vdd gnd i_add_term2[16] i_add_term1[16] _294_ AND2X2
XOAI21X1_69 gnd vdd _293_ _294_ _295_ gnd OAI21X1
XNAND2X1_70 vdd _21_[0] gnd _295_ _299_ NAND2X1
XOAI21X1_70 gnd vdd _296_ _293_ _23_[1] _298_ OAI21X1
XINVX1_46 _23_[3] _303_ vdd gnd INVX1
XOR2X2_26 _304_ i_add_term1[19] vdd gnd i_add_term2[19] OR2X2
XNAND2X1_71 vdd _305_ gnd i_add_term2[19] i_add_term1[19] NAND2X1
XNAND3X1_26 _305_ vdd gnd _303_ _304_ _306_ NAND3X1
XNOR2X1_26 vdd i_add_term1[19] gnd _300_ i_add_term2[19] NOR2X1
XAND2X2_26 vdd gnd i_add_term2[19] i_add_term1[19] _301_ AND2X2
XOAI21X1_71 gnd vdd _300_ _301_ _302_ _23_[3] OAI21X1
XNAND2X1_72 vdd _21_[3] gnd _302_ _306_ NAND2X1
XOAI21X1_72 gnd vdd _303_ _300_ _19_ _305_ OAI21X1
XINVX1_47 _23_[1] _310_ vdd gnd INVX1
XOR2X2_27 _311_ i_add_term1[17] vdd gnd i_add_term2[17] OR2X2
XNAND2X1_73 vdd _312_ gnd i_add_term2[17] i_add_term1[17] NAND2X1
XNAND3X1_27 _312_ vdd gnd _310_ _311_ _313_ NAND3X1
XNOR2X1_27 vdd i_add_term1[17] gnd _307_ i_add_term2[17] NOR2X1
XAND2X2_27 vdd gnd i_add_term2[17] i_add_term1[17] _308_ AND2X2
XOAI21X1_73 gnd vdd _307_ _308_ _309_ _23_[1] OAI21X1
XNAND2X1_74 vdd _21_[1] gnd _309_ _313_ NAND2X1
XOAI21X1_74 gnd vdd _310_ _307_ _23_[2] _312_ OAI21X1
XINVX1_48 _23_[2] _317_ vdd gnd INVX1
XOR2X2_28 _318_ i_add_term1[18] vdd gnd i_add_term2[18] OR2X2
XNAND2X1_75 vdd _319_ gnd i_add_term2[18] i_add_term1[18] NAND2X1
XNAND3X1_28 _319_ vdd gnd _317_ _318_ _320_ NAND3X1
XNOR2X1_28 vdd i_add_term1[18] gnd _314_ i_add_term2[18] NOR2X1
XAND2X2_28 vdd gnd i_add_term2[18] i_add_term1[18] _315_ AND2X2
XOAI21X1_75 gnd vdd _314_ _315_ _316_ _23_[2] OAI21X1
XNAND2X1_76 vdd _21_[2] gnd _316_ _320_ NAND2X1
XOAI21X1_76 gnd vdd _317_ _314_ _23_[3] _319_ OAI21X1
XINVX1_49 vdd _324_ vdd gnd INVX1
XOR2X2_29 _325_ i_add_term1[16] vdd gnd i_add_term2[16] OR2X2
XNAND2X1_77 vdd _326_ gnd i_add_term2[16] i_add_term1[16] NAND2X1
XNAND3X1_29 _326_ vdd gnd _324_ _325_ _327_ NAND3X1
XNOR2X1_29 vdd i_add_term1[16] gnd _321_ i_add_term2[16] NOR2X1
XAND2X2_29 vdd gnd i_add_term2[16] i_add_term1[16] _322_ AND2X2
XOAI21X1_77 gnd vdd _321_ _322_ _323_ vdd OAI21X1
XNAND2X1_78 vdd _22_[0] gnd _323_ _327_ NAND2X1
XOAI21X1_78 gnd vdd _324_ _321_ _24_[1] _326_ OAI21X1
XINVX1_50 _24_[3] _331_ vdd gnd INVX1
XOR2X2_30 _332_ i_add_term1[19] vdd gnd i_add_term2[19] OR2X2
XNAND2X1_79 vdd _333_ gnd i_add_term2[19] i_add_term1[19] NAND2X1
XNAND3X1_30 _333_ vdd gnd _331_ _332_ _334_ NAND3X1
XNOR2X1_30 vdd i_add_term1[19] gnd _328_ i_add_term2[19] NOR2X1
XAND2X2_30 vdd gnd i_add_term2[19] i_add_term1[19] _329_ AND2X2
XOAI21X1_79 gnd vdd _328_ _329_ _330_ _24_[3] OAI21X1
XNAND2X1_80 vdd _22_[3] gnd _330_ _334_ NAND2X1
XOAI21X1_80 gnd vdd _331_ _328_ _20_ _333_ OAI21X1
XINVX1_51 _24_[1] _338_ vdd gnd INVX1
XOR2X2_31 _339_ i_add_term1[17] vdd gnd i_add_term2[17] OR2X2
XNAND2X1_81 vdd _340_ gnd i_add_term2[17] i_add_term1[17] NAND2X1
XNAND3X1_31 _340_ vdd gnd _338_ _339_ _341_ NAND3X1
XNOR2X1_31 vdd i_add_term1[17] gnd _335_ i_add_term2[17] NOR2X1
XAND2X2_31 vdd gnd i_add_term2[17] i_add_term1[17] _336_ AND2X2
XOAI21X1_81 gnd vdd _335_ _336_ _337_ _24_[1] OAI21X1
XNAND2X1_82 vdd _22_[1] gnd _337_ _341_ NAND2X1
XOAI21X1_82 gnd vdd _338_ _335_ _24_[2] _340_ OAI21X1
XINVX1_52 _24_[2] _345_ vdd gnd INVX1
XOR2X2_32 _346_ i_add_term1[18] vdd gnd i_add_term2[18] OR2X2
XNAND2X1_83 vdd _347_ gnd i_add_term2[18] i_add_term1[18] NAND2X1
XNAND3X1_32 _347_ vdd gnd _345_ _346_ _348_ NAND3X1
XNOR2X1_32 vdd i_add_term1[18] gnd _342_ i_add_term2[18] NOR2X1
XAND2X2_32 vdd gnd i_add_term2[18] i_add_term1[18] _343_ AND2X2
XOAI21X1_83 gnd vdd _342_ _343_ _344_ _24_[2] OAI21X1
XNAND2X1_84 vdd _22_[2] gnd _344_ _348_ NAND2X1
XOAI21X1_84 gnd vdd _345_ _342_ _24_[3] _347_ OAI21X1
XINVX1_53 _25_ _349_ vdd gnd INVX1
XNAND2X1_85 vdd _350_ gnd _26_ w_cout[4] NAND2X1
XOAI21X1_85 gnd vdd w_cout[4] _349_ w_cout[5] _350_ OAI21X1
XINVX1_54 _27_[0] _351_ vdd gnd INVX1
XNAND2X1_86 vdd _352_ gnd _28_[0] w_cout[4] NAND2X1
XOAI21X1_86 gnd vdd w_cout[4] _351_ _0_[20] _352_ OAI21X1
XINVX1_55 _27_[1] _353_ vdd gnd INVX1
XNAND2X1_87 vdd _354_ gnd w_cout[4] _28_[1] NAND2X1
XOAI21X1_87 gnd vdd w_cout[4] _353_ _0_[21] _354_ OAI21X1
XINVX1_56 _27_[2] _355_ vdd gnd INVX1
XNAND2X1_88 vdd _356_ gnd w_cout[4] _28_[2] NAND2X1
XOAI21X1_88 gnd vdd w_cout[4] _355_ _0_[22] _356_ OAI21X1
XINVX1_57 _27_[3] _357_ vdd gnd INVX1
XNAND2X1_89 vdd _358_ gnd w_cout[4] _28_[3] NAND2X1
XOAI21X1_89 gnd vdd w_cout[4] _357_ _0_[23] _358_ OAI21X1
XINVX1_58 gnd _362_ vdd gnd INVX1
XOR2X2_33 _363_ i_add_term1[20] vdd gnd i_add_term2[20] OR2X2
XNAND2X1_90 vdd _364_ gnd i_add_term2[20] i_add_term1[20] NAND2X1
XNAND3X1_33 _364_ vdd gnd _362_ _363_ _365_ NAND3X1
XNOR2X1_33 vdd i_add_term1[20] gnd _359_ i_add_term2[20] NOR2X1
XAND2X2_33 vdd gnd i_add_term2[20] i_add_term1[20] _360_ AND2X2
XOAI21X1_90 gnd vdd _359_ _360_ _361_ gnd OAI21X1
XNAND2X1_91 vdd _27_[0] gnd _361_ _365_ NAND2X1
XOAI21X1_91 gnd vdd _362_ _359_ _29_[1] _364_ OAI21X1
XINVX1_59 _29_[3] _369_ vdd gnd INVX1
XOR2X2_34 _370_ i_add_term1[23] vdd gnd i_add_term2[23] OR2X2
XNAND2X1_92 vdd _371_ gnd i_add_term2[23] i_add_term1[23] NAND2X1
XNAND3X1_34 _371_ vdd gnd _369_ _370_ _372_ NAND3X1
XNOR2X1_34 vdd i_add_term1[23] gnd _366_ i_add_term2[23] NOR2X1
XAND2X2_34 vdd gnd i_add_term2[23] i_add_term1[23] _367_ AND2X2
XOAI21X1_92 gnd vdd _366_ _367_ _368_ _29_[3] OAI21X1
XNAND2X1_93 vdd _27_[3] gnd _368_ _372_ NAND2X1
XOAI21X1_93 gnd vdd _369_ _366_ _25_ _371_ OAI21X1
XINVX1_60 _29_[1] _376_ vdd gnd INVX1
XOR2X2_35 _377_ i_add_term1[21] vdd gnd i_add_term2[21] OR2X2
XNAND2X1_94 vdd _378_ gnd i_add_term2[21] i_add_term1[21] NAND2X1
XNAND3X1_35 _378_ vdd gnd _376_ _377_ _379_ NAND3X1
XNOR2X1_35 vdd i_add_term1[21] gnd _373_ i_add_term2[21] NOR2X1
XAND2X2_35 vdd gnd i_add_term2[21] i_add_term1[21] _374_ AND2X2
XOAI21X1_94 gnd vdd _373_ _374_ _375_ _29_[1] OAI21X1
XNAND2X1_95 vdd _27_[1] gnd _375_ _379_ NAND2X1
XOAI21X1_95 gnd vdd _376_ _373_ _29_[2] _378_ OAI21X1
XINVX1_61 _29_[2] _383_ vdd gnd INVX1
XOR2X2_36 _384_ i_add_term1[22] vdd gnd i_add_term2[22] OR2X2
XNAND2X1_96 vdd _385_ gnd i_add_term2[22] i_add_term1[22] NAND2X1
XNAND3X1_36 _385_ vdd gnd _383_ _384_ _386_ NAND3X1
XNOR2X1_36 vdd i_add_term1[22] gnd _380_ i_add_term2[22] NOR2X1
XAND2X2_36 vdd gnd i_add_term2[22] i_add_term1[22] _381_ AND2X2
XOAI21X1_96 gnd vdd _380_ _381_ _382_ _29_[2] OAI21X1
XNAND2X1_97 vdd _27_[2] gnd _382_ _386_ NAND2X1
XOAI21X1_97 gnd vdd _383_ _380_ _29_[3] _385_ OAI21X1
XINVX1_62 vdd _390_ vdd gnd INVX1
XOR2X2_37 _391_ i_add_term1[20] vdd gnd i_add_term2[20] OR2X2
XNAND2X1_98 vdd _392_ gnd i_add_term2[20] i_add_term1[20] NAND2X1
XNAND3X1_37 _392_ vdd gnd _390_ _391_ _393_ NAND3X1
XNOR2X1_37 vdd i_add_term1[20] gnd _387_ i_add_term2[20] NOR2X1
XAND2X2_37 vdd gnd i_add_term2[20] i_add_term1[20] _388_ AND2X2
XOAI21X1_98 gnd vdd _387_ _388_ _389_ vdd OAI21X1
XNAND2X1_99 vdd _28_[0] gnd _389_ _393_ NAND2X1
XOAI21X1_99 gnd vdd _390_ _387_ _30_[1] _392_ OAI21X1
XINVX1_63 _30_[3] _397_ vdd gnd INVX1
XOR2X2_38 _398_ i_add_term1[23] vdd gnd i_add_term2[23] OR2X2
XNAND2X1_100 vdd _399_ gnd i_add_term2[23] i_add_term1[23] NAND2X1
XNAND3X1_38 _399_ vdd gnd _397_ _398_ _400_ NAND3X1
XNOR2X1_38 vdd i_add_term1[23] gnd _394_ i_add_term2[23] NOR2X1
XAND2X2_38 vdd gnd i_add_term2[23] i_add_term1[23] _395_ AND2X2
XOAI21X1_100 gnd vdd _394_ _395_ _396_ _30_[3] OAI21X1
XNAND2X1_101 vdd _28_[3] gnd _396_ _400_ NAND2X1
XOAI21X1_101 gnd vdd _397_ _394_ _26_ _399_ OAI21X1
XINVX1_64 _30_[1] _404_ vdd gnd INVX1
XOR2X2_39 _405_ i_add_term1[21] vdd gnd i_add_term2[21] OR2X2
XNAND2X1_102 vdd _406_ gnd i_add_term2[21] i_add_term1[21] NAND2X1
XNAND3X1_39 _406_ vdd gnd _404_ _405_ _407_ NAND3X1
XNOR2X1_39 vdd i_add_term1[21] gnd _401_ i_add_term2[21] NOR2X1
XAND2X2_39 vdd gnd i_add_term2[21] i_add_term1[21] _402_ AND2X2
XOAI21X1_102 gnd vdd _401_ _402_ _403_ _30_[1] OAI21X1
XNAND2X1_103 vdd _28_[1] gnd _403_ _407_ NAND2X1
XOAI21X1_103 gnd vdd _404_ _401_ _30_[2] _406_ OAI21X1
XINVX1_65 _30_[2] _411_ vdd gnd INVX1
XOR2X2_40 _412_ i_add_term1[22] vdd gnd i_add_term2[22] OR2X2
XNAND2X1_104 vdd _413_ gnd i_add_term2[22] i_add_term1[22] NAND2X1
XNAND3X1_40 _413_ vdd gnd _411_ _412_ _414_ NAND3X1
XNOR2X1_40 vdd i_add_term1[22] gnd _408_ i_add_term2[22] NOR2X1
XAND2X2_40 vdd gnd i_add_term2[22] i_add_term1[22] _409_ AND2X2
XOAI21X1_104 gnd vdd _408_ _409_ _410_ _30_[2] OAI21X1
XNAND2X1_105 vdd _28_[2] gnd _410_ _414_ NAND2X1
XOAI21X1_105 gnd vdd _411_ _408_ _30_[3] _413_ OAI21X1
XINVX1_66 _31_ _415_ vdd gnd INVX1
XNAND2X1_106 vdd _416_ gnd _32_ w_cout[5] NAND2X1
XOAI21X1_106 gnd vdd w_cout[5] _415_ w_cout[6] _416_ OAI21X1
XINVX1_67 _33_[0] _417_ vdd gnd INVX1
XNAND2X1_107 vdd _418_ gnd _34_[0] w_cout[5] NAND2X1
XOAI21X1_107 gnd vdd w_cout[5] _417_ _0_[24] _418_ OAI21X1
XINVX1_68 _33_[1] _419_ vdd gnd INVX1
XNAND2X1_108 vdd _420_ gnd w_cout[5] _34_[1] NAND2X1
XOAI21X1_108 gnd vdd w_cout[5] _419_ _0_[25] _420_ OAI21X1
XINVX1_69 _33_[2] _421_ vdd gnd INVX1
XNAND2X1_109 vdd _422_ gnd w_cout[5] _34_[2] NAND2X1
XOAI21X1_109 gnd vdd w_cout[5] _421_ _0_[26] _422_ OAI21X1
XINVX1_70 _33_[3] _423_ vdd gnd INVX1
XNAND2X1_110 vdd _424_ gnd w_cout[5] _34_[3] NAND2X1
XOAI21X1_110 gnd vdd w_cout[5] _423_ _0_[27] _424_ OAI21X1
XINVX1_71 gnd _428_ vdd gnd INVX1
XOR2X2_41 _429_ i_add_term1[24] vdd gnd i_add_term2[24] OR2X2
XNAND2X1_111 vdd _430_ gnd i_add_term2[24] i_add_term1[24] NAND2X1
XNAND3X1_41 _430_ vdd gnd _428_ _429_ _431_ NAND3X1
XNOR2X1_41 vdd i_add_term1[24] gnd _425_ i_add_term2[24] NOR2X1
XAND2X2_41 vdd gnd i_add_term2[24] i_add_term1[24] _426_ AND2X2
XOAI21X1_111 gnd vdd _425_ _426_ _427_ gnd OAI21X1
XNAND2X1_112 vdd _33_[0] gnd _427_ _431_ NAND2X1
XOAI21X1_112 gnd vdd _428_ _425_ _35_[1] _430_ OAI21X1
XINVX1_72 _35_[3] _435_ vdd gnd INVX1