*SPICE netlist created from BLIF module CSkipA_64bit by blif2BSpice
.include /usr/local/share/qflow/tech/osu035/osu035_stdcells.sp
.subckt CSkipA_64bit vdd gnd i_add_term1[0] i_add_term1[1] i_add_term1[2] i_add_term1[3] i_add_term1[4] i_add_term1[5] i_add_term1[6] i_add_term1[7] i_add_term1[8] i_add_term1[9] i_add_term1[10] i_add_term1[11] i_add_term1[12] i_add_term1[13] i_add_term1[14] i_add_term1[15] i_add_term1[16] i_add_term1[17] i_add_term1[18] i_add_term1[19] i_add_term1[20] i_add_term1[21] i_add_term1[22] i_add_term1[23] i_add_term1[24] i_add_term1[25] i_add_term1[26] i_add_term1[27] i_add_term1[28] i_add_term1[29] i_add_term1[30] i_add_term1[31] i_add_term1[32] i_add_term1[33] i_add_term1[34] i_add_term1[35] i_add_term1[36] i_add_term1[37] i_add_term1[38] i_add_term1[39] i_add_term1[40] i_add_term1[41] i_add_term1[42] i_add_term1[43] i_add_term1[44] i_add_term1[45] i_add_term1[46] i_add_term1[47] i_add_term1[48] i_add_term1[49] i_add_term1[50] i_add_term1[51] i_add_term1[52] i_add_term1[53] i_add_term1[54] i_add_term1[55] i_add_term1[56] i_add_term1[57] i_add_term1[58] i_add_term1[59] i_add_term1[60] i_add_term1[61] i_add_term1[62] i_add_term1[63] i_add_term2[0] i_add_term2[1] i_add_term2[2] i_add_term2[3] i_add_term2[4] i_add_term2[5] i_add_term2[6] i_add_term2[7] i_add_term2[8] i_add_term2[9] i_add_term2[10] i_add_term2[11] i_add_term2[12] i_add_term2[13] i_add_term2[14] i_add_term2[15] i_add_term2[16] i_add_term2[17] i_add_term2[18] i_add_term2[19] i_add_term2[20] i_add_term2[21] i_add_term2[22] i_add_term2[23] i_add_term2[24] i_add_term2[25] i_add_term2[26] i_add_term2[27] i_add_term2[28] i_add_term2[29] i_add_term2[30] i_add_term2[31] i_add_term2[32] i_add_term2[33] i_add_term2[34] i_add_term2[35] i_add_term2[36] i_add_term2[37] i_add_term2[38] i_add_term2[39] i_add_term2[40] i_add_term2[41] i_add_term2[42] i_add_term2[43] i_add_term2[44] i_add_term2[45] i_add_term2[46] i_add_term2[47] i_add_term2[48] i_add_term2[49] i_add_term2[50] i_add_term2[51] i_add_term2[52] i_add_term2[53] i_add_term2[54] i_add_term2[55] i_add_term2[56] i_add_term2[57] i_add_term2[58] i_add_term2[59] i_add_term2[60] i_add_term2[61] i_add_term2[62] i_add_term2[63] sum[0] sum[1] sum[2] sum[3] sum[4] sum[5] sum[6] sum[7] sum[8] sum[9] sum[10] sum[11] sum[12] sum[13] sum[14] sum[15] sum[16] sum[17] sum[18] sum[19] sum[20] sum[21] sum[22] sum[23] sum[24] sum[25] sum[26] sum[27] sum[28] sum[29] sum[30] sum[31] sum[32] sum[33] sum[34] sum[35] sum[36] sum[37] sum[38] sum[39] sum[40] sum[41] sum[42] sum[43] sum[44] sum[45] sum[46] sum[47] sum[48] sum[49] sum[50] sum[51] sum[52] sum[53] sum[54] sum[55] sum[56] sum[57] sum[58] sum[59] sum[60] sum[61] sum[62] sum[63] cout 
XNAND3X1_1 _197_ vdd gnd _196_ _192_ _193_ NAND3X1
XAND2X2_1 vdd gnd i_add_term2[17] i_add_term1[17] _194_ AND2X2
XOAI21X1_1 gnd vdd _198_ _194_ _195_ _11_[1] OAI21X1
XNAND2X1_1 vdd _0_[17] gnd _195_ _193_ NAND2X1
XINVX1_1 _11_[2] _203_ vdd gnd INVX1
XNAND2X1_2 vdd _204_ gnd i_add_term2[18] i_add_term1[18] NAND2X1
XNOR2X1_1 vdd i_add_term1[18] gnd _205_ i_add_term2[18] NOR2X1
XOAI21X1_2 gnd vdd _203_ _205_ _11_[3] _204_ OAI21X1
XOR2X2_1 _199_ i_add_term1[18] vdd gnd i_add_term2[18] OR2X2
XNAND3X1_2 _204_ vdd gnd _203_ _199_ _200_ NAND3X1
XAND2X2_2 vdd gnd i_add_term2[18] i_add_term1[18] _201_ AND2X2
XOAI21X1_3 gnd vdd _205_ _201_ _202_ _11_[2] OAI21X1
XNAND2X1_3 vdd _0_[18] gnd _202_ _200_ NAND2X1
XINVX1_2 i_add_term1[16] _206_ vdd gnd INVX1
XNOR2X1_2 vdd _206_ gnd _207_ i_add_term2[16] NOR2X1
XINVX1_3 i_add_term2[16] _208_ vdd gnd INVX1
XNOR2X1_3 vdd _208_ gnd _209_ i_add_term1[16] NOR2X1
XINVX1_4 i_add_term1[17] _210_ vdd gnd INVX1
XNOR2X1_4 vdd _210_ gnd _211_ i_add_term2[17] NOR2X1
XINVX1_5 i_add_term2[17] _212_ vdd gnd INVX1
XNOR2X1_5 vdd _212_ gnd _213_ i_add_term1[17] NOR2X1
XOAI22X1_1 gnd vdd _213_ _211_ _207_ _209_ _214_ OAI22X1
XNOR2X1_6 vdd i_add_term1[19] gnd _215_ i_add_term2[19] NOR2X1
XAND2X2_3 vdd gnd i_add_term2[19] i_add_term1[19] _216_ AND2X2
XNOR2X1_7 vdd _216_ gnd _217_ _215_ NOR2X1
XXOR2X1_1 _218_ vdd i_add_term1[18] i_add_term2[18] gnd XOR2X1
XNAND2X1_4 vdd _219_ gnd _217_ _218_ NAND2X1
XNOR2X1_8 vdd _219_ gnd _12_ _214_ NOR2X1
XINVX1_6 _10_ _220_ vdd gnd INVX1
XNAND2X1_5 vdd _221_ gnd gnd _12_ NAND2X1
XOAI21X1_4 gnd vdd _12_ _220_ w_cout[4] _221_ OAI21X1
XINVX1_7 w_cout[4] _226_ vdd gnd INVX1
XNAND2X1_6 vdd _227_ gnd i_add_term2[20] i_add_term1[20] NAND2X1
XNOR2X1_9 vdd i_add_term1[20] gnd _228_ i_add_term2[20] NOR2X1
XOAI21X1_5 gnd vdd _226_ _228_ _14_[1] _227_ OAI21X1
XOR2X2_2 _222_ i_add_term1[20] vdd gnd i_add_term2[20] OR2X2
XNAND3X1_3 _227_ vdd gnd _226_ _222_ _223_ NAND3X1
XAND2X2_4 vdd gnd i_add_term2[20] i_add_term1[20] _224_ AND2X2
XOAI21X1_6 gnd vdd _228_ _224_ _225_ w_cout[4] OAI21X1
XNAND2X1_7 vdd _0_[20] gnd _225_ _223_ NAND2X1
XINVX1_8 _14_[3] _233_ vdd gnd INVX1
XNAND2X1_8 vdd _234_ gnd i_add_term2[23] i_add_term1[23] NAND2X1
XNOR2X1_10 vdd i_add_term1[23] gnd _235_ i_add_term2[23] NOR2X1
XOAI21X1_7 gnd vdd _233_ _235_ _13_ _234_ OAI21X1
XOR2X2_3 _229_ i_add_term1[23] vdd gnd i_add_term2[23] OR2X2
XNAND3X1_4 _234_ vdd gnd _233_ _229_ _230_ NAND3X1
XAND2X2_5 vdd gnd i_add_term2[23] i_add_term1[23] _231_ AND2X2
XOAI21X1_8 gnd vdd _235_ _231_ _232_ _14_[3] OAI21X1
XNAND2X1_9 vdd _0_[23] gnd _232_ _230_ NAND2X1
XINVX1_9 _14_[1] _240_ vdd gnd INVX1
XNAND2X1_10 vdd _241_ gnd i_add_term2[21] i_add_term1[21] NAND2X1
XNOR2X1_11 vdd i_add_term1[21] gnd _242_ i_add_term2[21] NOR2X1
XOAI21X1_9 gnd vdd _240_ _242_ _14_[2] _241_ OAI21X1
XOR2X2_4 _236_ i_add_term1[21] vdd gnd i_add_term2[21] OR2X2
XNAND3X1_5 _241_ vdd gnd _240_ _236_ _237_ NAND3X1
XAND2X2_6 vdd gnd i_add_term2[21] i_add_term1[21] _238_ AND2X2
XOAI21X1_10 gnd vdd _242_ _238_ _239_ _14_[1] OAI21X1
XNAND2X1_11 vdd _0_[21] gnd _239_ _237_ NAND2X1
XINVX1_10 _14_[2] _247_ vdd gnd INVX1
XNAND2X1_12 vdd _248_ gnd i_add_term2[22] i_add_term1[22] NAND2X1
XNOR2X1_12 vdd i_add_term1[22] gnd _249_ i_add_term2[22] NOR2X1
XOAI21X1_11 gnd vdd _247_ _249_ _14_[3] _248_ OAI21X1
XOR2X2_5 _243_ i_add_term1[22] vdd gnd i_add_term2[22] OR2X2
XNAND3X1_6 _248_ vdd gnd _247_ _243_ _244_ NAND3X1
XAND2X2_7 vdd gnd i_add_term2[22] i_add_term1[22] _245_ AND2X2
XOAI21X1_12 gnd vdd _249_ _245_ _246_ _14_[2] OAI21X1
XNAND2X1_13 vdd _0_[22] gnd _246_ _244_ NAND2X1
XINVX1_11 i_add_term1[20] _250_ vdd gnd INVX1
XNOR2X1_13 vdd _250_ gnd _251_ i_add_term2[20] NOR2X1
XINVX1_12 i_add_term2[20] _252_ vdd gnd INVX1
XNOR2X1_14 vdd _252_ gnd _253_ i_add_term1[20] NOR2X1
XINVX1_13 i_add_term1[21] _254_ vdd gnd INVX1
XNOR2X1_15 vdd _254_ gnd _255_ i_add_term2[21] NOR2X1
XINVX1_14 i_add_term2[21] _256_ vdd gnd INVX1
XNOR2X1_16 vdd _256_ gnd _257_ i_add_term1[21] NOR2X1
XOAI22X1_2 gnd vdd _257_ _255_ _251_ _253_ _258_ OAI22X1
XNOR2X1_17 vdd i_add_term1[23] gnd _259_ i_add_term2[23] NOR2X1
XAND2X2_8 vdd gnd i_add_term2[23] i_add_term1[23] _260_ AND2X2
XNOR2X1_18 vdd _260_ gnd _261_ _259_ NOR2X1
XXOR2X1_2 _262_ vdd i_add_term1[22] i_add_term2[22] gnd XOR2X1
XNAND2X1_14 vdd _263_ gnd _261_ _262_ NAND2X1
XNOR2X1_19 vdd _263_ gnd _15_ _258_ NOR2X1
XINVX1_15 _13_ _264_ vdd gnd INVX1
XNAND2X1_15 vdd _265_ gnd gnd _15_ NAND2X1
XOAI21X1_13 gnd vdd _15_ _264_ w_cout[5] _265_ OAI21X1
XINVX1_16 w_cout[5] _270_ vdd gnd INVX1
XNAND2X1_16 vdd _271_ gnd i_add_term2[24] i_add_term1[24] NAND2X1
XNOR2X1_20 vdd i_add_term1[24] gnd _272_ i_add_term2[24] NOR2X1
XOAI21X1_14 gnd vdd _270_ _272_ _17_[1] _271_ OAI21X1
XOR2X2_6 _266_ i_add_term1[24] vdd gnd i_add_term2[24] OR2X2
XNAND3X1_7 _271_ vdd gnd _270_ _266_ _267_ NAND3X1
XAND2X2_9 vdd gnd i_add_term2[24] i_add_term1[24] _268_ AND2X2
XOAI21X1_15 gnd vdd _272_ _268_ _269_ w_cout[5] OAI21X1
XNAND2X1_17 vdd _0_[24] gnd _269_ _267_ NAND2X1
XINVX1_17 _17_[3] _277_ vdd gnd INVX1
XNAND2X1_18 vdd _278_ gnd i_add_term2[27] i_add_term1[27] NAND2X1
XNOR2X1_21 vdd i_add_term1[27] gnd _279_ i_add_term2[27] NOR2X1
XOAI21X1_16 gnd vdd _277_ _279_ _16_ _278_ OAI21X1
XOR2X2_7 _273_ i_add_term1[27] vdd gnd i_add_term2[27] OR2X2
XNAND3X1_8 _278_ vdd gnd _277_ _273_ _274_ NAND3X1
XAND2X2_10 vdd gnd i_add_term2[27] i_add_term1[27] _275_ AND2X2
XOAI21X1_17 gnd vdd _279_ _275_ _276_ _17_[3] OAI21X1
XNAND2X1_19 vdd _0_[27] gnd _276_ _274_ NAND2X1
XINVX1_18 _17_[1] _284_ vdd gnd INVX1
XNAND2X1_20 vdd _285_ gnd i_add_term2[25] i_add_term1[25] NAND2X1
XNOR2X1_22 vdd i_add_term1[25] gnd _286_ i_add_term2[25] NOR2X1
XOAI21X1_18 gnd vdd _284_ _286_ _17_[2] _285_ OAI21X1
XOR2X2_8 _280_ i_add_term1[25] vdd gnd i_add_term2[25] OR2X2
XNAND3X1_9 _285_ vdd gnd _284_ _280_ _281_ NAND3X1
XAND2X2_11 vdd gnd i_add_term2[25] i_add_term1[25] _282_ AND2X2
XOAI21X1_19 gnd vdd _286_ _282_ _283_ _17_[1] OAI21X1
XNAND2X1_21 vdd _0_[25] gnd _283_ _281_ NAND2X1
XINVX1_19 _17_[2] _291_ vdd gnd INVX1
XNAND2X1_22 vdd _292_ gnd i_add_term2[26] i_add_term1[26] NAND2X1
XNOR2X1_23 vdd i_add_term1[26] gnd _293_ i_add_term2[26] NOR2X1
XOAI21X1_20 gnd vdd _291_ _293_ _17_[3] _292_ OAI21X1
XOR2X2_9 _287_ i_add_term1[26] vdd gnd i_add_term2[26] OR2X2
XNAND3X1_10 _292_ vdd gnd _291_ _287_ _288_ NAND3X1
XAND2X2_12 vdd gnd i_add_term2[26] i_add_term1[26] _289_ AND2X2
XOAI21X1_21 gnd vdd _293_ _289_ _290_ _17_[2] OAI21X1
XNAND2X1_23 vdd _0_[26] gnd _290_ _288_ NAND2X1
XINVX1_20 i_add_term1[24] _294_ vdd gnd INVX1
XNOR2X1_24 vdd _294_ gnd _295_ i_add_term2[24] NOR2X1
XINVX1_21 i_add_term2[24] _296_ vdd gnd INVX1
XNOR2X1_25 vdd _296_ gnd _297_ i_add_term1[24] NOR2X1
XINVX1_22 i_add_term1[25] _298_ vdd gnd INVX1
XNOR2X1_26 vdd _298_ gnd _299_ i_add_term2[25] NOR2X1
XINVX1_23 i_add_term2[25] _300_ vdd gnd INVX1
XNOR2X1_27 vdd _300_ gnd _301_ i_add_term1[25] NOR2X1
XOAI22X1_3 gnd vdd _301_ _299_ _295_ _297_ _302_ OAI22X1
XNOR2X1_28 vdd i_add_term1[27] gnd _303_ i_add_term2[27] NOR2X1
XAND2X2_13 vdd gnd i_add_term2[27] i_add_term1[27] _304_ AND2X2
XNOR2X1_29 vdd _304_ gnd _305_ _303_ NOR2X1
XXOR2X1_3 _306_ vdd i_add_term1[26] i_add_term2[26] gnd XOR2X1
XNAND2X1_24 vdd _307_ gnd _305_ _306_ NAND2X1
XNOR2X1_30 vdd _307_ gnd _18_ _302_ NOR2X1
XINVX1_24 _16_ _308_ vdd gnd INVX1
XNAND2X1_25 vdd _309_ gnd gnd _18_ NAND2X1
XOAI21X1_22 gnd vdd _18_ _308_ w_cout[6] _309_ OAI21X1
XINVX1_25 w_cout[6] _314_ vdd gnd INVX1
XNAND2X1_26 vdd _315_ gnd i_add_term2[28] i_add_term1[28] NAND2X1
XNOR2X1_31 vdd i_add_term1[28] gnd _316_ i_add_term2[28] NOR2X1
XOAI21X1_23 gnd vdd _314_ _316_ _20_[1] _315_ OAI21X1
XOR2X2_10 _310_ i_add_term1[28] vdd gnd i_add_term2[28] OR2X2
XNAND3X1_11 _315_ vdd gnd _314_ _310_ _311_ NAND3X1
XAND2X2_14 vdd gnd i_add_term2[28] i_add_term1[28] _312_ AND2X2
XOAI21X1_24 gnd vdd _316_ _312_ _313_ w_cout[6] OAI21X1
XNAND2X1_27 vdd _0_[28] gnd _313_ _311_ NAND2X1
XINVX1_26 _20_[3] _321_ vdd gnd INVX1
XNAND2X1_28 vdd _322_ gnd i_add_term2[31] i_add_term1[31] NAND2X1
XNOR2X1_32 vdd i_add_term1[31] gnd _323_ i_add_term2[31] NOR2X1
XOAI21X1_25 gnd vdd _321_ _323_ _19_ _322_ OAI21X1
XOR2X2_11 _317_ i_add_term1[31] vdd gnd i_add_term2[31] OR2X2
XNAND3X1_12 _322_ vdd gnd _321_ _317_ _318_ NAND3X1
XAND2X2_15 vdd gnd i_add_term2[31] i_add_term1[31] _319_ AND2X2
XOAI21X1_26 gnd vdd _323_ _319_ _320_ _20_[3] OAI21X1
XNAND2X1_29 vdd _0_[31] gnd _320_ _318_ NAND2X1
XINVX1_27 _20_[1] _328_ vdd gnd INVX1
XNAND2X1_30 vdd _329_ gnd i_add_term2[29] i_add_term1[29] NAND2X1
XNOR2X1_33 vdd i_add_term1[29] gnd _330_ i_add_term2[29] NOR2X1
XOAI21X1_27 gnd vdd _328_ _330_ _20_[2] _329_ OAI21X1
XOR2X2_12 _324_ i_add_term1[29] vdd gnd i_add_term2[29] OR2X2
XNAND3X1_13 _329_ vdd gnd _328_ _324_ _325_ NAND3X1
XAND2X2_16 vdd gnd i_add_term2[29] i_add_term1[29] _326_ AND2X2
XOAI21X1_28 gnd vdd _330_ _326_ _327_ _20_[1] OAI21X1
XNAND2X1_31 vdd _0_[29] gnd _327_ _325_ NAND2X1
XINVX1_28 _20_[2] _335_ vdd gnd INVX1
XNAND2X1_32 vdd _336_ gnd i_add_term2[30] i_add_term1[30] NAND2X1
XNOR2X1_34 vdd i_add_term1[30] gnd _337_ i_add_term2[30] NOR2X1
XOAI21X1_29 gnd vdd _335_ _337_ _20_[3] _336_ OAI21X1
XOR2X2_13 _331_ i_add_term1[30] vdd gnd i_add_term2[30] OR2X2
XNAND3X1_14 _336_ vdd gnd _335_ _331_ _332_ NAND3X1
XAND2X2_17 vdd gnd i_add_term2[30] i_add_term1[30] _333_ AND2X2
XOAI21X1_30 gnd vdd _337_ _333_ _334_ _20_[2] OAI21X1
XNAND2X1_33 vdd _0_[30] gnd _334_ _332_ NAND2X1
XINVX1_29 i_add_term1[28] _338_ vdd gnd INVX1
XNOR2X1_35 vdd _338_ gnd _339_ i_add_term2[28] NOR2X1
XINVX1_30 i_add_term2[28] _340_ vdd gnd INVX1
XNOR2X1_36 vdd _340_ gnd _341_ i_add_term1[28] NOR2X1
XINVX1_31 i_add_term1[29] _342_ vdd gnd INVX1
XNOR2X1_37 vdd _342_ gnd _343_ i_add_term2[29] NOR2X1
XINVX1_32 i_add_term2[29] _344_ vdd gnd INVX1
XNOR2X1_38 vdd _344_ gnd _345_ i_add_term1[29] NOR2X1
XOAI22X1_4 gnd vdd _345_ _343_ _339_ _341_ _346_ OAI22X1
XNOR2X1_39 vdd i_add_term1[31] gnd _347_ i_add_term2[31] NOR2X1
XAND2X2_18 vdd gnd i_add_term2[31] i_add_term1[31] _348_ AND2X2
XNOR2X1_40 vdd _348_ gnd _349_ _347_ NOR2X1
XXOR2X1_4 _350_ vdd i_add_term1[30] i_add_term2[30] gnd XOR2X1
XNAND2X1_34 vdd _351_ gnd _349_ _350_ NAND2X1
XNOR2X1_41 vdd _351_ gnd _21_ _346_ NOR2X1
XINVX1_33 _19_ _352_ vdd gnd INVX1
XNAND2X1_35 vdd _353_ gnd gnd _21_ NAND2X1
XOAI21X1_31 gnd vdd _21_ _352_ w_cout[7] _353_ OAI21X1
XINVX1_34 w_cout[7] _358_ vdd gnd INVX1
XNAND2X1_36 vdd _359_ gnd i_add_term2[32] i_add_term1[32] NAND2X1
XNOR2X1_42 vdd i_add_term1[32] gnd _360_ i_add_term2[32] NOR2X1
XOAI21X1_32 gnd vdd _358_ _360_ _23_[1] _359_ OAI21X1
XOR2X2_14 _354_ i_add_term1[32] vdd gnd i_add_term2[32] OR2X2
XNAND3X1_15 _359_ vdd gnd _358_ _354_ _355_ NAND3X1
XAND2X2_19 vdd gnd i_add_term2[32] i_add_term1[32] _356_ AND2X2
XOAI21X1_33 gnd vdd _360_ _356_ _357_ w_cout[7] OAI21X1
XNAND2X1_37 vdd _0_[32] gnd _357_ _355_ NAND2X1
XINVX1_35 _23_[3] _365_ vdd gnd INVX1
XNAND2X1_38 vdd _366_ gnd i_add_term2[35] i_add_term1[35] NAND2X1
XNOR2X1_43 vdd i_add_term1[35] gnd _367_ i_add_term2[35] NOR2X1
XOAI21X1_34 gnd vdd _365_ _367_ _22_ _366_ OAI21X1
XOR2X2_15 _361_ i_add_term1[35] vdd gnd i_add_term2[35] OR2X2
XNAND3X1_16 _366_ vdd gnd _365_ _361_ _362_ NAND3X1
XAND2X2_20 vdd gnd i_add_term2[35] i_add_term1[35] _363_ AND2X2
XOAI21X1_35 gnd vdd _367_ _363_ _364_ _23_[3] OAI21X1
XNAND2X1_39 vdd _0_[35] gnd _364_ _362_ NAND2X1
XINVX1_36 _23_[1] _372_ vdd gnd INVX1
XNAND2X1_40 vdd _373_ gnd i_add_term2[33] i_add_term1[33] NAND2X1
XNOR2X1_44 vdd i_add_term1[33] gnd _374_ i_add_term2[33] NOR2X1
XOAI21X1_36 gnd vdd _372_ _374_ _23_[2] _373_ OAI21X1
XOR2X2_16 _368_ i_add_term1[33] vdd gnd i_add_term2[33] OR2X2
XNAND3X1_17 _373_ vdd gnd _372_ _368_ _369_ NAND3X1
XAND2X2_21 vdd gnd i_add_term2[33] i_add_term1[33] _370_ AND2X2
XOAI21X1_37 gnd vdd _374_ _370_ _371_ _23_[1] OAI21X1
XNAND2X1_41 vdd _0_[33] gnd _371_ _369_ NAND2X1
XINVX1_37 _23_[2] _379_ vdd gnd INVX1
XNAND2X1_42 vdd _380_ gnd i_add_term2[34] i_add_term1[34] NAND2X1
XNOR2X1_45 vdd i_add_term1[34] gnd _381_ i_add_term2[34] NOR2X1
XOAI21X1_38 gnd vdd _379_ _381_ _23_[3] _380_ OAI21X1
XOR2X2_17 _375_ i_add_term1[34] vdd gnd i_add_term2[34] OR2X2
XNAND3X1_18 _380_ vdd gnd _379_ _375_ _376_ NAND3X1
XAND2X2_22 vdd gnd i_add_term2[34] i_add_term1[34] _377_ AND2X2
XOAI21X1_39 gnd vdd _381_ _377_ _378_ _23_[2] OAI21X1
XNAND2X1_43 vdd _0_[34] gnd _378_ _376_ NAND2X1
XINVX1_38 i_add_term1[32] _382_ vdd gnd INVX1
XNOR2X1_46 vdd _382_ gnd _383_ i_add_term2[32] NOR2X1
XINVX1_39 i_add_term2[32] _384_ vdd gnd INVX1
XNOR2X1_47 vdd _384_ gnd _385_ i_add_term1[32] NOR2X1
XINVX1_40 i_add_term1[33] _386_ vdd gnd INVX1
XNOR2X1_48 vdd _386_ gnd _387_ i_add_term2[33] NOR2X1
XINVX1_41 i_add_term2[33] _388_ vdd gnd INVX1
XNOR2X1_49 vdd _388_ gnd _389_ i_add_term1[33] NOR2X1
XOAI22X1_5 gnd vdd _389_ _387_ _383_ _385_ _390_ OAI22X1
XNOR2X1_50 vdd i_add_term1[35] gnd _391_ i_add_term2[35] NOR2X1
XAND2X2_23 vdd gnd i_add_term2[35] i_add_term1[35] _392_ AND2X2
XNOR2X1_51 vdd _392_ gnd _393_ _391_ NOR2X1
XXOR2X1_5 _394_ vdd i_add_term1[34] i_add_term2[34] gnd XOR2X1
XNAND2X1_44 vdd _395_ gnd _393_ _394_ NAND2X1
XNOR2X1_52 vdd _395_ gnd _24_ _390_ NOR2X1
XINVX1_42 _22_ _396_ vdd gnd INVX1
XNAND2X1_45 vdd _397_ gnd gnd _24_ NAND2X1
XOAI21X1_40 gnd vdd _24_ _396_ w_cout[8] _397_ OAI21X1
XINVX1_43 w_cout[8] _402_ vdd gnd INVX1
XNAND2X1_46 vdd _403_ gnd i_add_term2[36] i_add_term1[36] NAND2X1
XNOR2X1_53 vdd i_add_term1[36] gnd _404_ i_add_term2[36] NOR2X1
XOAI21X1_41 gnd vdd _402_ _404_ _26_[1] _403_ OAI21X1
XOR2X2_18 _398_ i_add_term1[36] vdd gnd i_add_term2[36] OR2X2
XNAND3X1_19 _403_ vdd gnd _402_ _398_ _399_ NAND3X1
XAND2X2_24 vdd gnd i_add_term2[36] i_add_term1[36] _400_ AND2X2
XOAI21X1_42 gnd vdd _404_ _400_ _401_ w_cout[8] OAI21X1
XNAND2X1_47 vdd _0_[36] gnd _401_ _399_ NAND2X1
XINVX1_44 _26_[3] _409_ vdd gnd INVX1
XNAND2X1_48 vdd _410_ gnd i_add_term2[39] i_add_term1[39] NAND2X1
XNOR2X1_54 vdd i_add_term1[39] gnd _411_ i_add_term2[39] NOR2X1
XOAI21X1_43 gnd vdd _409_ _411_ _25_ _410_ OAI21X1
XOR2X2_19 _405_ i_add_term1[39] vdd gnd i_add_term2[39] OR2X2
XNAND3X1_20 _410_ vdd gnd _409_ _405_ _406_ NAND3X1
XAND2X2_25 vdd gnd i_add_term2[39] i_add_term1[39] _407_ AND2X2
XOAI21X1_44 gnd vdd _411_ _407_ _408_ _26_[3] OAI21X1
XNAND2X1_49 vdd _0_[39] gnd _408_ _406_ NAND2X1
XINVX1_45 _26_[1] _416_ vdd gnd INVX1
XNAND2X1_50 vdd _417_ gnd i_add_term2[37] i_add_term1[37] NAND2X1
XNOR2X1_55 vdd i_add_term1[37] gnd _418_ i_add_term2[37] NOR2X1
XOAI21X1_45 gnd vdd _416_ _418_ _26_[2] _417_ OAI21X1
XOR2X2_20 _412_ i_add_term1[37] vdd gnd i_add_term2[37] OR2X2
XNAND3X1_21 _417_ vdd gnd _416_ _412_ _413_ NAND3X1
XAND2X2_26 vdd gnd i_add_term2[37] i_add_term1[37] _414_ AND2X2
XOAI21X1_46 gnd vdd _418_ _414_ _415_ _26_[1] OAI21X1
XNAND2X1_51 vdd _0_[37] gnd _415_ _413_ NAND2X1
XINVX1_46 _26_[2] _423_ vdd gnd INVX1
XNAND2X1_52 vdd _424_ gnd i_add_term2[38] i_add_term1[38] NAND2X1
XNOR2X1_56 vdd i_add_term1[38] gnd _425_ i_add_term2[38] NOR2X1
XOAI21X1_47 gnd vdd _423_ _425_ _26_[3] _424_ OAI21X1
XOR2X2_21 _419_ i_add_term1[38] vdd gnd i_add_term2[38] OR2X2
XNAND3X1_22 _424_ vdd gnd _423_ _419_ _420_ NAND3X1
XAND2X2_27 vdd gnd i_add_term2[38] i_add_term1[38] _421_ AND2X2
XOAI21X1_48 gnd vdd _425_ _421_ _422_ _26_[2] OAI21X1
XNAND2X1_53 vdd _0_[38] gnd _422_ _420_ NAND2X1
XINVX1_47 i_add_term1[36] _426_ vdd gnd INVX1
XNOR2X1_57 vdd _426_ gnd _427_ i_add_term2[36] NOR2X1
XINVX1_48 i_add_term2[36] _428_ vdd gnd INVX1
XNOR2X1_58 vdd _428_ gnd _429_ i_add_term1[36] NOR2X1
XINVX1_49 i_add_term1[37] _430_ vdd gnd INVX1
XNOR2X1_59 vdd _430_ gnd _431_ i_add_term2[37] NOR2X1
XINVX1_50 i_add_term2[37] _432_ vdd gnd INVX1
XNOR2X1_60 vdd _432_ gnd _433_ i_add_term1[37] NOR2X1
XOAI22X1_6 gnd vdd _433_ _431_ _427_ _429_ _434_ OAI22X1
XNOR2X1_61 vdd i_add_term1[39] gnd _435_ i_add_term2[39] NOR2X1
XAND2X2_28 vdd gnd i_add_term2[39] i_add_term1[39] _436_ AND2X2
XNOR2X1_62 vdd _436_ gnd _437_ _435_ NOR2X1
XXOR2X1_6 _438_ vdd i_add_term1[38] i_add_term2[38] gnd XOR2X1
XNAND2X1_54 vdd _439_ gnd _437_ _438_ NAND2X1
XNOR2X1_63 vdd _439_ gnd _27_ _434_ NOR2X1
XINVX1_51 _25_ _440_ vdd gnd INVX1
XNAND2X1_55 vdd _441_ gnd gnd _27_ NAND2X1
XOAI21X1_49 gnd vdd _27_ _440_ w_cout[9] _441_ OAI21X1
XINVX1_52 w_cout[9] _446_ vdd gnd INVX1
XNAND2X1_56 vdd _447_ gnd i_add_term2[40] i_add_term1[40] NAND2X1
XNOR2X1_64 vdd i_add_term1[40] gnd _448_ i_add_term2[40] NOR2X1
XOAI21X1_50 gnd vdd _446_ _448_ _29_[1] _447_ OAI21X1
XOR2X2_22 _442_ i_add_term1[40] vdd gnd i_add_term2[40] OR2X2
XNAND3X1_23 _447_ vdd gnd _446_ _442_ _443_ NAND3X1
XAND2X2_29 vdd gnd i_add_term2[40] i_add_term1[40] _444_ AND2X2
XOAI21X1_51 gnd vdd _448_ _444_ _445_ w_cout[9] OAI21X1
XNAND2X1_57 vdd _0_[40] gnd _445_ _443_ NAND2X1
XINVX1_53 _29_[3] _453_ vdd gnd INVX1
XNAND2X1_58 vdd _454_ gnd i_add_term2[43] i_add_term1[43] NAND2X1
XNOR2X1_65 vdd i_add_term1[43] gnd _455_ i_add_term2[43] NOR2X1
XOAI21X1_52 gnd vdd _453_ _455_ _28_ _454_ OAI21X1
XOR2X2_23 _449_ i_add_term1[43] vdd gnd i_add_term2[43] OR2X2
XNAND3X1_24 _454_ vdd gnd _453_ _449_ _450_ NAND3X1
XAND2X2_30 vdd gnd i_add_term2[43] i_add_term1[43] _451_ AND2X2
XOAI21X1_53 gnd vdd _455_ _451_ _452_ _29_[3] OAI21X1
XNAND2X1_59 vdd _0_[43] gnd _452_ _450_ NAND2X1
XINVX1_54 _29_[1] _460_ vdd gnd INVX1
XNAND2X1_60 vdd _461_ gnd i_add_term2[41] i_add_term1[41] NAND2X1
XNOR2X1_66 vdd i_add_term1[41] gnd _462_ i_add_term2[41] NOR2X1
XOAI21X1_54 gnd vdd _460_ _462_ _29_[2] _461_ OAI21X1
XOR2X2_24 _456_ i_add_term1[41] vdd gnd i_add_term2[41] OR2X2
XNAND3X1_25 _461_ vdd gnd _460_ _456_ _457_ NAND3X1
XAND2X2_31 vdd gnd i_add_term2[41] i_add_term1[41] _458_ AND2X2
XOAI21X1_55 gnd vdd _462_ _458_ _459_ _29_[1] OAI21X1
XNAND2X1_61 vdd _0_[41] gnd _459_ _457_ NAND2X1
XINVX1_55 _29_[2] _467_ vdd gnd INVX1
XNAND2X1_62 vdd _468_ gnd i_add_term2[42] i_add_term1[42] NAND2X1
XNOR2X1_67 vdd i_add_term1[42] gnd _469_ i_add_term2[42] NOR2X1
XOAI21X1_56 gnd vdd _467_ _469_ _29_[3] _468_ OAI21X1
XOR2X2_25 _463_ i_add_term1[42] vdd gnd i_add_term2[42] OR2X2
XNAND3X1_26 _468_ vdd gnd _467_ _463_ _464_ NAND3X1
XAND2X2_32 vdd gnd i_add_term2[42] i_add_term1[42] _465_ AND2X2
XOAI21X1_57 gnd vdd _469_ _465_ _466_ _29_[2] OAI21X1
XNAND2X1_63 vdd _0_[42] gnd _466_ _464_ NAND2X1
XINVX1_56 i_add_term1[40] _470_ vdd gnd INVX1
XNOR2X1_68 vdd _470_ gnd _471_ i_add_term2[40] NOR2X1
XINVX1_57 i_add_term2[40] _472_ vdd gnd INVX1
XNOR2X1_69 vdd _472_ gnd _473_ i_add_term1[40] NOR2X1
XINVX1_58 i_add_term1[41] _474_ vdd gnd INVX1
XNOR2X1_70 vdd _474_ gnd _475_ i_add_term2[41] NOR2X1
XINVX1_59 i_add_term2[41] _476_ vdd gnd INVX1
XNOR2X1_71 vdd _476_ gnd _477_ i_add_term1[41] NOR2X1
XOAI22X1_7 gnd vdd _477_ _475_ _471_ _473_ _478_ OAI22X1
XNOR2X1_72 vdd i_add_term1[43] gnd _479_ i_add_term2[43] NOR2X1
XAND2X2_33 vdd gnd i_add_term2[43] i_add_term1[43] _480_ AND2X2
XNOR2X1_73 vdd _480_ gnd _481_ _479_ NOR2X1
XXOR2X1_7 _482_ vdd i_add_term1[42] i_add_term2[42] gnd XOR2X1
XNAND2X1_64 vdd _483_ gnd _481_ _482_ NAND2X1
XNOR2X1_74 vdd _483_ gnd _30_ _478_ NOR2X1
XINVX1_60 _28_ _484_ vdd gnd INVX1
XNAND2X1_65 vdd _485_ gnd gnd _30_ NAND2X1
XOAI21X1_58 gnd vdd _30_ _484_ w_cout[10] _485_ OAI21X1
XINVX1_61 w_cout[10] _490_ vdd gnd INVX1
XNAND2X1_66 vdd _491_ gnd i_add_term2[44] i_add_term1[44] NAND2X1
XNOR2X1_75 vdd i_add_term1[44] gnd _492_ i_add_term2[44] NOR2X1
XOAI21X1_59 gnd vdd _490_ _492_ _32_[1] _491_ OAI21X1
XOR2X2_26 _486_ i_add_term1[44] vdd gnd i_add_term2[44] OR2X2
XNAND3X1_27 _491_ vdd gnd _490_ _486_ _487_ NAND3X1
XAND2X2_34 vdd gnd i_add_term2[44] i_add_term1[44] _488_ AND2X2
XOAI21X1_60 gnd vdd _492_ _488_ _489_ w_cout[10] OAI21X1
XNAND2X1_67 vdd _0_[44] gnd _489_ _487_ NAND2X1
XINVX1_62 _32_[3] _497_ vdd gnd INVX1
XNAND2X1_68 vdd _498_ gnd i_add_term2[47] i_add_term1[47] NAND2X1
XNOR2X1_76 vdd i_add_term1[47] gnd _499_ i_add_term2[47] NOR2X1
XOAI21X1_61 gnd vdd _497_ _499_ _31_ _498_ OAI21X1
XOR2X2_27 _493_ i_add_term1[47] vdd gnd i_add_term2[47] OR2X2
XNAND3X1_28 _498_ vdd gnd _497_ _493_ _494_ NAND3X1
XAND2X2_35 vdd gnd i_add_term2[47] i_add_term1[47] _495_ AND2X2
XOAI21X1_62 gnd vdd _499_ _495_ _496_ _32_[3] OAI21X1
XNAND2X1_69 vdd _0_[47] gnd _496_ _494_ NAND2X1
XINVX1_63 _32_[1] _504_ vdd gnd INVX1
XNAND2X1_70 vdd _505_ gnd i_add_term2[45] i_add_term1[45] NAND2X1
XNOR2X1_77 vdd i_add_term1[45] gnd _506_ i_add_term2[45] NOR2X1
XOAI21X1_63 gnd vdd _504_ _506_ _32_[2] _505_ OAI21X1
XOR2X2_28 _500_ i_add_term1[45] vdd gnd i_add_term2[45] OR2X2
XNAND3X1_29 _505_ vdd gnd _504_ _500_ _501_ NAND3X1
XAND2X2_36 vdd gnd i_add_term2[45] i_add_term1[45] _502_ AND2X2
XOAI21X1_64 gnd vdd _506_ _502_ _503_ _32_[1] OAI21X1
XNAND2X1_71 vdd _0_[45] gnd _503_ _501_ NAND2X1
XINVX1_64 _32_[2] _511_ vdd gnd INVX1
XNAND2X1_72 vdd _512_ gnd i_add_term2[46] i_add_term1[46] NAND2X1
XNOR2X1_78 vdd i_add_term1[46] gnd _513_ i_add_term2[46] NOR2X1
XOAI21X1_65 gnd vdd _511_ _513_ _32_[3] _512_ OAI21X1
XOR2X2_29 _507_ i_add_term1[46] vdd gnd i_add_term2[46] OR2X2
XNAND3X1_30 _512_ vdd gnd _511_ _507_ _508_ NAND3X1
XAND2X2_37 vdd gnd i_add_term2[46] i_add_term1[46] _509_ AND2X2
XOAI21X1_66 gnd vdd _513_ _509_ _510_ _32_[2] OAI21X1
XNAND2X1_73 vdd _0_[46] gnd _510_ _508_ NAND2X1
XINVX1_65 i_add_term1[44] _514_ vdd gnd INVX1
XNOR2X1_79 vdd _514_ gnd _515_ i_add_term2[44] NOR2X1
XINVX1_66 i_add_term2[44] _516_ vdd gnd INVX1
XNOR2X1_80 vdd _516_ gnd _517_ i_add_term1[44] NOR2X1
XINVX1_67 i_add_term1[45] _518_ vdd gnd INVX1
XNOR2X1_81 vdd _518_ gnd _519_ i_add_term2[45] NOR2X1
XINVX1_68 i_add_term2[45] _520_ vdd gnd INVX1
XNOR2X1_82 vdd _520_ gnd _521_ i_add_term1[45] NOR2X1
XOAI22X1_8 gnd vdd _521_ _519_ _515_ _517_ _522_ OAI22X1
XNOR2X1_83 vdd i_add_term1[47] gnd _523_ i_add_term2[47] NOR2X1
XAND2X2_38 vdd gnd i_add_term2[47] i_add_term1[47] _524_ AND2X2
XNOR2X1_84 vdd _524_ gnd _525_ _523_ NOR2X1
XXOR2X1_8 _526_ vdd i_add_term1[46] i_add_term2[46] gnd XOR2X1
XNAND2X1_74 vdd _527_ gnd _525_ _526_ NAND2X1
XNOR2X1_85 vdd _527_ gnd _33_ _522_ NOR2X1
XINVX1_69 _31_ _528_ vdd gnd INVX1
XNAND2X1_75 vdd _529_ gnd gnd _33_ NAND2X1
XOAI21X1_67 gnd vdd _33_ _528_ w_cout[11] _529_ OAI21X1
XINVX1_70 w_cout[11] _534_ vdd gnd INVX1
XNAND2X1_76 vdd _535_ gnd i_add_term2[48] i_add_term1[48] NAND2X1
XNOR2X1_86 vdd i_add_term1[48] gnd _536_ i_add_term2[48] NOR2X1
XOAI21X1_68 gnd vdd _534_ _536_ _35_[1] _535_ OAI21X1
XOR2X2_30 _530_ i_add_term1[48] vdd gnd i_add_term2[48] OR2X2
XNAND3X1_31 _535_ vdd gnd _534_ _530_ _531_ NAND3X1
XAND2X2_39 vdd gnd i_add_term2[48] i_add_term1[48] _532_ AND2X2
XOAI21X1_69 gnd vdd _536_ _532_ _533_ w_cout[11] OAI21X1
XNAND2X1_77 vdd _0_[48] gnd _533_ _531_ NAND2X1
XINVX1_71 _35_[3] _541_ vdd gnd INVX1
XNAND2X1_78 vdd _542_ gnd i_add_term2[51] i_add_term1[51] NAND2X1
XNOR2X1_87 vdd i_add_term1[51] gnd _543_ i_add_term2[51] NOR2X1
XOAI21X1_70 gnd vdd _541_ _543_ _34_ _542_ OAI21X1
XOR2X2_31 _537_ i_add_term1[51] vdd gnd i_add_term2[51] OR2X2
XNAND3X1_32 _542_ vdd gnd _541_ _537_ _538_ NAND3X1
XAND2X2_40 vdd gnd i_add_term2[51] i_add_term1[51] _539_ AND2X2
XOAI21X1_71 gnd vdd _543_ _539_ _540_ _35_[3] OAI21X1
XNAND2X1_79 vdd _0_[51] gnd _540_ _538_ NAND2X1
XINVX1_72 _35_[1] _548_ vdd gnd INVX1
XNAND2X1_80 vdd _549_ gnd i_add_term2[49] i_add_term1[49] NAND2X1
XNOR2X1_88 vdd i_add_term1[49] gnd _550_ i_add_term2[49] NOR2X1
XOAI21X1_72 gnd vdd _548_ _550_ _35_[2] _549_ OAI21X1
XOR2X2_32 _544_ i_add_term1[49] vdd gnd i_add_term2[49] OR2X2
XNAND3X1_33 _549_ vdd gnd _548_ _544_ _545_ NAND3X1
XAND2X2_41 vdd gnd i_add_term2[49] i_add_term1[49] _546_ AND2X2
XOAI21X1_73 gnd vdd _550_ _546_ _547_ _35_[1] OAI21X1
XNAND2X1_81 vdd _0_[49] gnd _547_ _545_ NAND2X1
XINVX1_73 _35_[2] _555_ vdd gnd INVX1
XNAND2X1_82 vdd _556_ gnd i_add_term2[50] i_add_term1[50] NAND2X1
XNOR2X1_89 vdd i_add_term1[50] gnd _557_ i_add_term2[50] NOR2X1
XOAI21X1_74 gnd vdd _555_ _557_ _35_[3] _556_ OAI21X1
XOR2X2_33 _551_ i_add_term1[50] vdd gnd i_add_term2[50] OR2X2
XNAND3X1_34 _556_ vdd gnd _555_ _551_ _552_ NAND3X1
XAND2X2_42 vdd gnd i_add_term2[50] i_add_term1[50] _553_ AND2X2
XOAI21X1_75 gnd vdd _557_ _553_ _554_ _35_[2] OAI21X1
XNAND2X1_83 vdd _0_[50] gnd _554_ _552_ NAND2X1
XINVX1_74 i_add_term1[48] _558_ vdd gnd INVX1
XNOR2X1_90 vdd _558_ gnd _559_ i_add_term2[48] NOR2X1
XINVX1_75 i_add_term2[48] _560_ vdd gnd INVX1
XNOR2X1_91 vdd _560_ gnd _561_ i_add_term1[48] NOR2X1
XINVX1_76 i_add_term1[49] _562_ vdd gnd INVX1
XNOR2X1_92 vdd _562_ gnd _563_ i_add_term2[49] NOR2X1
XINVX1_77 i_add_term2[49] _564_ vdd gnd INVX1
XNOR2X1_93 vdd _564_ gnd _565_ i_add_term1[49] NOR2X1
XOAI22X1_9 gnd vdd _565_ _563_ _559_ _561_ _566_ OAI22X1
XNOR2X1_94 vdd i_add_term1[51] gnd _567_ i_add_term2[51] NOR2X1
XAND2X2_43 vdd gnd i_add_term2[51] i_add_term1[51] _568_ AND2X2
XNOR2X1_95 vdd _568_ gnd _569_ _567_ NOR2X1
XXOR2X1_9 _570_ vdd i_add_term1[50] i_add_term2[50] gnd XOR2X1
XNAND2X1_84 vdd _571_ gnd _569_ _570_ NAND2X1
XNOR2X1_96 vdd _571_ gnd _36_ _566_ NOR2X1
XINVX1_78 _34_ _572_ vdd gnd INVX1
XNAND2X1_85 vdd _573_ gnd gnd _36_ NAND2X1
XOAI21X1_76 gnd vdd _36_ _572_ w_cout[12] _573_ OAI21X1
XINVX1_79 w_cout[12] _578_ vdd gnd INVX1
XNAND2X1_86 vdd _579_ gnd i_add_term2[52] i_add_term1[52] NAND2X1
XNOR2X1_97 vdd i_add_term1[52] gnd _580_ i_add_term2[52] NOR2X1
XOAI21X1_77 gnd vdd _578_ _580_ _38_[1] _579_ OAI21X1
XOR2X2_34 _574_ i_add_term1[52] vdd gnd i_add_term2[52] OR2X2
XNAND3X1_35 _579_ vdd gnd _578_ _574_ _575_ NAND3X1
XAND2X2_44 vdd gnd i_add_term2[52] i_add_term1[52] _576_ AND2X2
XOAI21X1_78 gnd vdd _580_ _576_ _577_ w_cout[12] OAI21X1
XNAND2X1_87 vdd _0_[52] gnd _577_ _575_ NAND2X1
XINVX1_80 _38_[3] _585_ vdd gnd INVX1
XNAND2X1_88 vdd _586_ gnd i_add_term2[55] i_add_term1[55] NAND2X1
XNOR2X1_98 vdd i_add_term1[55] gnd _587_ i_add_term2[55] NOR2X1
XOAI21X1_79 gnd vdd _585_ _587_ _37_ _586_ OAI21X1
XOR2X2_35 _581_ i_add_term1[55] vdd gnd i_add_term2[55] OR2X2
XNAND3X1_36 _586_ vdd gnd _585_ _581_ _582_ NAND3X1
XAND2X2_45 vdd gnd i_add_term2[55] i_add_term1[55] _583_ AND2X2
XOAI21X1_80 gnd vdd _587_ _583_ _584_ _38_[3] OAI21X1
XNAND2X1_89 vdd _0_[55] gnd _584_ _582_ NAND2X1
XINVX1_81 _38_[1] _592_ vdd gnd INVX1
XNAND2X1_90 vdd _593_ gnd i_add_term2[53] i_add_term1[53] NAND2X1
XNOR2X1_99 vdd i_add_term1[53] gnd _594_ i_add_term2[53] NOR2X1
XOAI21X1_81 gnd vdd _592_ _594_ _38_[2] _593_ OAI21X1
XOR2X2_36 _588_ i_add_term1[53] vdd gnd i_add_term2[53] OR2X2
XNAND3X1_37 _593_ vdd gnd _592_ _588_ _589_ NAND3X1
XAND2X2_46 vdd gnd i_add_term2[53] i_add_term1[53] _590_ AND2X2
XOAI21X1_82 gnd vdd _594_ _590_ _591_ _38_[1] OAI21X1
XNAND2X1_91 vdd _0_[53] gnd _591_ _589_ NAND2X1
XINVX1_82 _38_[2] _599_ vdd gnd INVX1
XNAND2X1_92 vdd _600_ gnd i_add_term2[54] i_add_term1[54] NAND2X1
XNOR2X1_100 vdd i_add_term1[54] gnd _601_ i_add_term2[54] NOR2X1
XOAI21X1_83 gnd vdd _599_ _601_ _38_[3] _600_ OAI21X1
XOR2X2_37 _595_ i_add_term1[54] vdd gnd i_add_term2[54] OR2X2
XNAND3X1_38 _600_ vdd gnd _599_ _595_ _596_ NAND3X1
XAND2X2_47 vdd gnd i_add_term2[54] i_add_term1[54] _597_ AND2X2
XOAI21X1_84 gnd vdd _601_ _597_ _598_ _38_[2] OAI21X1
XNAND2X1_93 vdd _0_[54] gnd _598_ _596_ NAND2X1
XINVX1_83 i_add_term1[52] _602_ vdd gnd INVX1
XNOR2X1_101 vdd _602_ gnd _603_ i_add_term2[52] NOR2X1
XINVX1_84 i_add_term2[52] _604_ vdd gnd INVX1
XNOR2X1_102 vdd _604_ gnd _605_ i_add_term1[52] NOR2X1
XINVX1_85 i_add_term1[53] _606_ vdd gnd INVX1
XNOR2X1_103 vdd _606_ gnd _607_ i_add_term2[53] NOR2X1