* XSpice netlist created from SPICE and liberty sources by spi2xspice.py
*SPICE netlist created from BLIF module CSkipA_34bit by blif2BSpice
.subckt CSkipA_34bit a_vdd a_gnd a_i_add_term1_0_ a_i_add_term1_1_ a_i_add_term1_2_ a_i_add_term1_3_ a_i_add_term1_4_ a_i_add_term1_5_ a_i_add_term1_6_ a_i_add_term1_7_ a_i_add_term1_8_ a_i_add_term1_9_ a_i_add_term1_10_ a_i_add_term1_11_ a_i_add_term1_12_ a_i_add_term1_13_ a_i_add_term1_14_ a_i_add_term1_15_ a_i_add_term1_16_ a_i_add_term1_17_ a_i_add_term1_18_ a_i_add_term1_19_ a_i_add_term1_20_ a_i_add_term1_21_ a_i_add_term1_22_ a_i_add_term1_23_ a_i_add_term1_24_ a_i_add_term1_25_ a_i_add_term1_26_ a_i_add_term1_27_ a_i_add_term1_28_ a_i_add_term1_29_ a_i_add_term1_30_ a_i_add_term1_31_ a_i_add_term1_32_ a_i_add_term1_33_ a_i_add_term2_0_ a_i_add_term2_1_ a_i_add_term2_2_ a_i_add_term2_3_ a_i_add_term2_4_ a_i_add_term2_5_ a_i_add_term2_6_ a_i_add_term2_7_ a_i_add_term2_8_ a_i_add_term2_9_ a_i_add_term2_10_ a_i_add_term2_11_ a_i_add_term2_12_ a_i_add_term2_13_ a_i_add_term2_14_ a_i_add_term2_15_ a_i_add_term2_16_ a_i_add_term2_17_ a_i_add_term2_18_ a_i_add_term2_19_ a_i_add_term2_20_ a_i_add_term2_21_ a_i_add_term2_22_ a_i_add_term2_23_ a_i_add_term2_24_ a_i_add_term2_25_ a_i_add_term2_26_ a_i_add_term2_27_ a_i_add_term2_28_ a_i_add_term2_29_ a_i_add_term2_30_ a_i_add_term2_31_ a_i_add_term2_32_ a_i_add_term2_33_ a_sum_0_ a_sum_1_ a_sum_2_ a_sum_3_ a_sum_4_ a_sum_5_ a_sum_6_ a_sum_7_ a_sum_8_ a_sum_9_ a_sum_10_ a_sum_11_ a_sum_12_ a_sum_13_ a_sum_14_ a_sum_15_ a_sum_16_ a_sum_17_ a_sum_18_ a_sum_19_ a_sum_20_ a_sum_21_ a_sum_22_ a_sum_23_ a_sum_24_ a_sum_25_ a_sum_26_ a_sum_27_ a_sum_28_ a_sum_29_ a_sum_30_ a_sum_31_ a_sum_32_ a_sum_33_ a_cout
ABUFX2_1 [w_cout_9_] cout d_lut_BUFX2
ABUFX2_2 [_0__0_] sum_0_ d_lut_BUFX2
ABUFX2_3 [_0__1_] sum_1_ d_lut_BUFX2
ABUFX2_4 [_0__2_] sum_2_ d_lut_BUFX2
ABUFX2_5 [_0__3_] sum_3_ d_lut_BUFX2
ABUFX2_6 [_0__4_] sum_4_ d_lut_BUFX2
ABUFX2_7 [_0__5_] sum_5_ d_lut_BUFX2
ABUFX2_8 [_0__6_] sum_6_ d_lut_BUFX2
ABUFX2_9 [_0__7_] sum_7_ d_lut_BUFX2
ABUFX2_10 [_0__8_] sum_8_ d_lut_BUFX2
ABUFX2_11 [_0__9_] sum_9_ d_lut_BUFX2
ABUFX2_12 [_0__10_] sum_10_ d_lut_BUFX2
ABUFX2_13 [_0__11_] sum_11_ d_lut_BUFX2
ABUFX2_14 [_0__12_] sum_12_ d_lut_BUFX2
ABUFX2_15 [_0__13_] sum_13_ d_lut_BUFX2
ABUFX2_16 [_0__14_] sum_14_ d_lut_BUFX2
ABUFX2_17 [_0__15_] sum_15_ d_lut_BUFX2
ABUFX2_18 [_0__16_] sum_16_ d_lut_BUFX2
ABUFX2_19 [_0__17_] sum_17_ d_lut_BUFX2
ABUFX2_20 [_0__18_] sum_18_ d_lut_BUFX2
ABUFX2_21 [_0__19_] sum_19_ d_lut_BUFX2
ABUFX2_22 [_0__20_] sum_20_ d_lut_BUFX2
ABUFX2_23 [_0__21_] sum_21_ d_lut_BUFX2
ABUFX2_24 [_0__22_] sum_22_ d_lut_BUFX2
ABUFX2_25 [_0__23_] sum_23_ d_lut_BUFX2
ABUFX2_26 [_0__24_] sum_24_ d_lut_BUFX2
ABUFX2_27 [_0__25_] sum_25_ d_lut_BUFX2
ABUFX2_28 [_0__26_] sum_26_ d_lut_BUFX2
ABUFX2_29 [_0__27_] sum_27_ d_lut_BUFX2
ABUFX2_30 [_0__28_] sum_28_ d_lut_BUFX2
ABUFX2_31 [_0__29_] sum_29_ d_lut_BUFX2
ABUFX2_32 [_0__30_] sum_30_ d_lut_BUFX2
ABUFX2_33 [_0__31_] sum_31_ d_lut_BUFX2
ABUFX2_34 [cskip2_inst.rca0.fa0.o_sum] sum_32_ d_lut_BUFX2
ABUFX2_35 [cskip2_inst.rca0.fa31.o_sum] sum_33_ d_lut_BUFX2
AINVX1_1 [gnd] _28_ d_lut_INVX1
AOR2X2_1 [i_add_term2_0_ i_add_term1_0_] _29_ d_lut_OR2X2
ANAND2X1_1 [i_add_term2_0_ i_add_term1_0_] _30_ d_lut_NAND2X1
ANAND3X1_1 [_28_ _30_ _29_] _31_ d_lut_NAND3X1
ANOR2X1_1 [i_add_term2_0_ i_add_term1_0_] _25_ d_lut_NOR2X1
AAND2X2_1 [i_add_term2_0_ i_add_term1_0_] _26_ d_lut_AND2X2
AOAI21X1_1 [_25_ _26_ gnd] _27_ d_lut_OAI21X1
ANAND2X1_2 [_27_ _31_] _0__0_ d_lut_NAND2X1
AOAI21X1_2 [_28_ _25_ _30_] _2__1_ d_lut_OAI21X1
AINVX1_2 [_2__3_] _35_ d_lut_INVX1
AOR2X2_2 [i_add_term2_3_ i_add_term1_3_] _36_ d_lut_OR2X2
ANAND2X1_3 [i_add_term2_3_ i_add_term1_3_] _37_ d_lut_NAND2X1
ANAND3X1_2 [_35_ _37_ _36_] _38_ d_lut_NAND3X1
ANOR2X1_2 [i_add_term2_3_ i_add_term1_3_] _32_ d_lut_NOR2X1
AAND2X2_2 [i_add_term2_3_ i_add_term1_3_] _33_ d_lut_AND2X2
AOAI21X1_3 [_32_ _33_ _2__3_] _34_ d_lut_OAI21X1
ANAND2X1_4 [_34_ _38_] _0__3_ d_lut_NAND2X1
AOAI21X1_4 [_35_ _32_ _37_] _1_ d_lut_OAI21X1
AINVX1_3 [_2__1_] _42_ d_lut_INVX1
AOR2X2_3 [i_add_term2_1_ i_add_term1_1_] _43_ d_lut_OR2X2
ANAND2X1_5 [i_add_term2_1_ i_add_term1_1_] _44_ d_lut_NAND2X1
ANAND3X1_3 [_42_ _44_ _43_] _45_ d_lut_NAND3X1
ANOR2X1_3 [i_add_term2_1_ i_add_term1_1_] _39_ d_lut_NOR2X1
AAND2X2_3 [i_add_term2_1_ i_add_term1_1_] _40_ d_lut_AND2X2
AOAI21X1_5 [_39_ _40_ _2__1_] _41_ d_lut_OAI21X1
ANAND2X1_6 [_41_ _45_] _0__1_ d_lut_NAND2X1
AOAI21X1_6 [_42_ _39_ _44_] _2__2_ d_lut_OAI21X1
AINVX1_4 [_2__2_] _49_ d_lut_INVX1
AOR2X2_4 [i_add_term2_2_ i_add_term1_2_] _50_ d_lut_OR2X2
ANAND2X1_7 [i_add_term2_2_ i_add_term1_2_] _51_ d_lut_NAND2X1
ANAND3X1_4 [_49_ _51_ _50_] _52_ d_lut_NAND3X1
ANOR2X1_4 [i_add_term2_2_ i_add_term1_2_] _46_ d_lut_NOR2X1
AAND2X2_4 [i_add_term2_2_ i_add_term1_2_] _47_ d_lut_AND2X2
AOAI21X1_7 [_46_ _47_ _2__2_] _48_ d_lut_OAI21X1
ANAND2X1_8 [_48_ _52_] _0__2_ d_lut_NAND2X1
AOAI21X1_8 [_49_ _46_ _51_] _2__3_ d_lut_OAI21X1
AINVX1_5 [i_add_term1_0_] _53_ d_lut_INVX1
ANOR2X1_5 [i_add_term2_0_ _53_] _54_ d_lut_NOR2X1
AINVX1_6 [i_add_term2_0_] _55_ d_lut_INVX1
ANOR2X1_6 [i_add_term1_0_ _55_] _56_ d_lut_NOR2X1
AINVX1_7 [i_add_term1_1_] _57_ d_lut_INVX1
ANOR2X1_7 [i_add_term2_1_ _57_] _58_ d_lut_NOR2X1
AINVX1_8 [i_add_term2_1_] _59_ d_lut_INVX1
ANOR2X1_8 [i_add_term1_1_ _59_] _60_ d_lut_NOR2X1
AOAI22X1_1 [_54_ _56_ _58_ _60_] _61_ d_lut_OAI22X1
ANOR2X1_9 [i_add_term2_3_ i_add_term1_3_] _62_ d_lut_NOR2X1
AAND2X2_5 [i_add_term2_3_ i_add_term1_3_] _63_ d_lut_AND2X2
ANOR2X1_10 [_62_ _63_] _64_ d_lut_NOR2X1
AXOR2X1_1 [i_add_term2_2_ i_add_term1_2_] _65_ d_lut_XOR2X1
ANAND2X1_9 [_64_ _65_] _66_ d_lut_NAND2X1
ANOR2X1_11 [_61_ _66_] _3_ d_lut_NOR2X1
AINVX1_9 [_1_] _67_ d_lut_INVX1
ANAND2X1_10 [gnd _3_] _68_ d_lut_NAND2X1
AOAI21X1_9 [_3_ _67_ _68_] w_cout_1_ d_lut_OAI21X1
AINVX1_10 [w_cout_1_] _72_ d_lut_INVX1
AOR2X2_5 [i_add_term2_4_ i_add_term1_4_] _73_ d_lut_OR2X2
ANAND2X1_11 [i_add_term2_4_ i_add_term1_4_] _74_ d_lut_NAND2X1
ANAND3X1_5 [_72_ _74_ _73_] _75_ d_lut_NAND3X1
ANOR2X1_12 [i_add_term2_4_ i_add_term1_4_] _69_ d_lut_NOR2X1
AAND2X2_6 [i_add_term2_4_ i_add_term1_4_] _70_ d_lut_AND2X2
AOAI21X1_10 [_69_ _70_ w_cout_1_] _71_ d_lut_OAI21X1
ANAND2X1_12 [_71_ _75_] _0__4_ d_lut_NAND2X1
AOAI21X1_11 [_72_ _69_ _74_] _5__1_ d_lut_OAI21X1
AINVX1_11 [_5__3_] _79_ d_lut_INVX1
AOR2X2_6 [i_add_term2_7_ i_add_term1_7_] _80_ d_lut_OR2X2
ANAND2X1_13 [i_add_term2_7_ i_add_term1_7_] _81_ d_lut_NAND2X1
ANAND3X1_6 [_79_ _81_ _80_] _82_ d_lut_NAND3X1
ANOR2X1_13 [i_add_term2_7_ i_add_term1_7_] _76_ d_lut_NOR2X1
AAND2X2_7 [i_add_term2_7_ i_add_term1_7_] _77_ d_lut_AND2X2
AOAI21X1_12 [_76_ _77_ _5__3_] _78_ d_lut_OAI21X1
ANAND2X1_14 [_78_ _82_] _0__7_ d_lut_NAND2X1
AOAI21X1_13 [_79_ _76_ _81_] _4_ d_lut_OAI21X1
AINVX1_12 [_5__1_] _86_ d_lut_INVX1
AOR2X2_7 [i_add_term2_5_ i_add_term1_5_] _87_ d_lut_OR2X2
ANAND2X1_15 [i_add_term2_5_ i_add_term1_5_] _88_ d_lut_NAND2X1
ANAND3X1_7 [_86_ _88_ _87_] _89_ d_lut_NAND3X1
ANOR2X1_14 [i_add_term2_5_ i_add_term1_5_] _83_ d_lut_NOR2X1
AAND2X2_8 [i_add_term2_5_ i_add_term1_5_] _84_ d_lut_AND2X2
AOAI21X1_14 [_83_ _84_ _5__1_] _85_ d_lut_OAI21X1
ANAND2X1_16 [_85_ _89_] _0__5_ d_lut_NAND2X1
AOAI21X1_15 [_86_ _83_ _88_] _5__2_ d_lut_OAI21X1
AINVX1_13 [_5__2_] _93_ d_lut_INVX1
AOR2X2_8 [i_add_term2_6_ i_add_term1_6_] _94_ d_lut_OR2X2
ANAND2X1_17 [i_add_term2_6_ i_add_term1_6_] _95_ d_lut_NAND2X1
ANAND3X1_8 [_93_ _95_ _94_] _96_ d_lut_NAND3X1
ANOR2X1_15 [i_add_term2_6_ i_add_term1_6_] _90_ d_lut_NOR2X1
AAND2X2_9 [i_add_term2_6_ i_add_term1_6_] _91_ d_lut_AND2X2
AOAI21X1_16 [_90_ _91_ _5__2_] _92_ d_lut_OAI21X1
ANAND2X1_18 [_92_ _96_] _0__6_ d_lut_NAND2X1
AOAI21X1_17 [_93_ _90_ _95_] _5__3_ d_lut_OAI21X1
AINVX1_14 [i_add_term1_4_] _97_ d_lut_INVX1
ANOR2X1_16 [i_add_term2_4_ _97_] _98_ d_lut_NOR2X1
AINVX1_15 [i_add_term2_4_] _99_ d_lut_INVX1
ANOR2X1_17 [i_add_term1_4_ _99_] _100_ d_lut_NOR2X1
AINVX1_16 [i_add_term1_5_] _101_ d_lut_INVX1
ANOR2X1_18 [i_add_term2_5_ _101_] _102_ d_lut_NOR2X1
AINVX1_17 [i_add_term2_5_] _103_ d_lut_INVX1
ANOR2X1_19 [i_add_term1_5_ _103_] _104_ d_lut_NOR2X1
AOAI22X1_2 [_98_ _100_ _102_ _104_] _105_ d_lut_OAI22X1
ANOR2X1_20 [i_add_term2_7_ i_add_term1_7_] _106_ d_lut_NOR2X1
AAND2X2_10 [i_add_term2_7_ i_add_term1_7_] _107_ d_lut_AND2X2
ANOR2X1_21 [_106_ _107_] _108_ d_lut_NOR2X1
AXOR2X1_2 [i_add_term2_6_ i_add_term1_6_] _109_ d_lut_XOR2X1
ANAND2X1_19 [_108_ _109_] _110_ d_lut_NAND2X1
ANOR2X1_22 [_105_ _110_] _6_ d_lut_NOR2X1
AINVX1_18 [_4_] _111_ d_lut_INVX1
ANAND2X1_20 [gnd _6_] _112_ d_lut_NAND2X1
AOAI21X1_18 [_6_ _111_ _112_] w_cout_2_ d_lut_OAI21X1
AINVX1_19 [w_cout_2_] _116_ d_lut_INVX1
AOR2X2_9 [i_add_term2_8_ i_add_term1_8_] _117_ d_lut_OR2X2
ANAND2X1_21 [i_add_term2_8_ i_add_term1_8_] _118_ d_lut_NAND2X1
ANAND3X1_9 [_116_ _118_ _117_] _119_ d_lut_NAND3X1
ANOR2X1_23 [i_add_term2_8_ i_add_term1_8_] _113_ d_lut_NOR2X1
AAND2X2_11 [i_add_term2_8_ i_add_term1_8_] _114_ d_lut_AND2X2
AOAI21X1_19 [_113_ _114_ w_cout_2_] _115_ d_lut_OAI21X1
ANAND2X1_22 [_115_ _119_] _0__8_ d_lut_NAND2X1
AOAI21X1_20 [_116_ _113_ _118_] _8__1_ d_lut_OAI21X1
AINVX1_20 [_8__3_] _123_ d_lut_INVX1
AOR2X2_10 [i_add_term2_11_ i_add_term1_11_] _124_ d_lut_OR2X2
ANAND2X1_23 [i_add_term2_11_ i_add_term1_11_] _125_ d_lut_NAND2X1
ANAND3X1_10 [_123_ _125_ _124_] _126_ d_lut_NAND3X1
ANOR2X1_24 [i_add_term2_11_ i_add_term1_11_] _120_ d_lut_NOR2X1
AAND2X2_12 [i_add_term2_11_ i_add_term1_11_] _121_ d_lut_AND2X2
AOAI21X1_21 [_120_ _121_ _8__3_] _122_ d_lut_OAI21X1
ANAND2X1_24 [_122_ _126_] _0__11_ d_lut_NAND2X1
AOAI21X1_22 [_123_ _120_ _125_] _7_ d_lut_OAI21X1
AINVX1_21 [_8__1_] _130_ d_lut_INVX1
AOR2X2_11 [i_add_term2_9_ i_add_term1_9_] _131_ d_lut_OR2X2
ANAND2X1_25 [i_add_term2_9_ i_add_term1_9_] _132_ d_lut_NAND2X1
ANAND3X1_11 [_130_ _132_ _131_] _133_ d_lut_NAND3X1
ANOR2X1_25 [i_add_term2_9_ i_add_term1_9_] _127_ d_lut_NOR2X1
AAND2X2_13 [i_add_term2_9_ i_add_term1_9_] _128_ d_lut_AND2X2
AOAI21X1_23 [_127_ _128_ _8__1_] _129_ d_lut_OAI21X1
ANAND2X1_26 [_129_ _133_] _0__9_ d_lut_NAND2X1
AOAI21X1_24 [_130_ _127_ _132_] _8__2_ d_lut_OAI21X1
AINVX1_22 [_8__2_] _137_ d_lut_INVX1
AOR2X2_12 [i_add_term2_10_ i_add_term1_10_] _138_ d_lut_OR2X2
ANAND2X1_27 [i_add_term2_10_ i_add_term1_10_] _139_ d_lut_NAND2X1
ANAND3X1_12 [_137_ _139_ _138_] _140_ d_lut_NAND3X1
ANOR2X1_26 [i_add_term2_10_ i_add_term1_10_] _134_ d_lut_NOR2X1
AAND2X2_14 [i_add_term2_10_ i_add_term1_10_] _135_ d_lut_AND2X2
AOAI21X1_25 [_134_ _135_ _8__2_] _136_ d_lut_OAI21X1
ANAND2X1_28 [_136_ _140_] _0__10_ d_lut_NAND2X1
AOAI21X1_26 [_137_ _134_ _139_] _8__3_ d_lut_OAI21X1
AINVX1_23 [i_add_term1_8_] _141_ d_lut_INVX1
ANOR2X1_27 [i_add_term2_8_ _141_] _142_ d_lut_NOR2X1
AINVX1_24 [i_add_term2_8_] _143_ d_lut_INVX1
ANOR2X1_28 [i_add_term1_8_ _143_] _144_ d_lut_NOR2X1
AINVX1_25 [i_add_term1_9_] _145_ d_lut_INVX1
ANOR2X1_29 [i_add_term2_9_ _145_] _146_ d_lut_NOR2X1
AINVX1_26 [i_add_term2_9_] _147_ d_lut_INVX1
ANOR2X1_30 [i_add_term1_9_ _147_] _148_ d_lut_NOR2X1
AOAI22X1_3 [_142_ _144_ _146_ _148_] _149_ d_lut_OAI22X1
ANOR2X1_31 [i_add_term2_11_ i_add_term1_11_] _150_ d_lut_NOR2X1
AAND2X2_15 [i_add_term2_11_ i_add_term1_11_] _151_ d_lut_AND2X2
ANOR2X1_32 [_150_ _151_] _152_ d_lut_NOR2X1
AXOR2X1_3 [i_add_term2_10_ i_add_term1_10_] _153_ d_lut_XOR2X1
ANAND2X1_29 [_152_ _153_] _154_ d_lut_NAND2X1
ANOR2X1_33 [_149_ _154_] _9_ d_lut_NOR2X1
AINVX1_27 [_7_] _155_ d_lut_INVX1
ANAND2X1_30 [gnd _9_] _156_ d_lut_NAND2X1
AOAI21X1_27 [_9_ _155_ _156_] w_cout_3_ d_lut_OAI21X1
AINVX1_28 [w_cout_3_] _160_ d_lut_INVX1
AOR2X2_13 [i_add_term2_12_ i_add_term1_12_] _161_ d_lut_OR2X2
ANAND2X1_31 [i_add_term2_12_ i_add_term1_12_] _162_ d_lut_NAND2X1
ANAND3X1_13 [_160_ _162_ _161_] _163_ d_lut_NAND3X1
ANOR2X1_34 [i_add_term2_12_ i_add_term1_12_] _157_ d_lut_NOR2X1
AAND2X2_16 [i_add_term2_12_ i_add_term1_12_] _158_ d_lut_AND2X2
AOAI21X1_28 [_157_ _158_ w_cout_3_] _159_ d_lut_OAI21X1
ANAND2X1_32 [_159_ _163_] _0__12_ d_lut_NAND2X1
AOAI21X1_29 [_160_ _157_ _162_] _11__1_ d_lut_OAI21X1
AINVX1_29 [_11__3_] _167_ d_lut_INVX1
AOR2X2_14 [i_add_term2_15_ i_add_term1_15_] _168_ d_lut_OR2X2
ANAND2X1_33 [i_add_term2_15_ i_add_term1_15_] _169_ d_lut_NAND2X1
ANAND3X1_14 [_167_ _169_ _168_] _170_ d_lut_NAND3X1
ANOR2X1_35 [i_add_term2_15_ i_add_term1_15_] _164_ d_lut_NOR2X1
AAND2X2_17 [i_add_term2_15_ i_add_term1_15_] _165_ d_lut_AND2X2
AOAI21X1_30 [_164_ _165_ _11__3_] _166_ d_lut_OAI21X1
ANAND2X1_34 [_166_ _170_] _0__15_ d_lut_NAND2X1
AOAI21X1_31 [_167_ _164_ _169_] _10_ d_lut_OAI21X1
AINVX1_30 [_11__1_] _174_ d_lut_INVX1
AOR2X2_15 [i_add_term2_13_ i_add_term1_13_] _175_ d_lut_OR2X2
ANAND2X1_35 [i_add_term2_13_ i_add_term1_13_] _176_ d_lut_NAND2X1
ANAND3X1_15 [_174_ _176_ _175_] _177_ d_lut_NAND3X1
ANOR2X1_36 [i_add_term2_13_ i_add_term1_13_] _171_ d_lut_NOR2X1
AAND2X2_18 [i_add_term2_13_ i_add_term1_13_] _172_ d_lut_AND2X2
AOAI21X1_32 [_171_ _172_ _11__1_] _173_ d_lut_OAI21X1
ANAND2X1_36 [_173_ _177_] _0__13_ d_lut_NAND2X1
AOAI21X1_33 [_174_ _171_ _176_] _11__2_ d_lut_OAI21X1
AINVX1_31 [_11__2_] _181_ d_lut_INVX1
AOR2X2_16 [i_add_term2_14_ i_add_term1_14_] _182_ d_lut_OR2X2
ANAND2X1_37 [i_add_term2_14_ i_add_term1_14_] _183_ d_lut_NAND2X1
ANAND3X1_16 [_181_ _183_ _182_] _184_ d_lut_NAND3X1
ANOR2X1_37 [i_add_term2_14_ i_add_term1_14_] _178_ d_lut_NOR2X1
AAND2X2_19 [i_add_term2_14_ i_add_term1_14_] _179_ d_lut_AND2X2
AOAI21X1_34 [_178_ _179_ _11__2_] _180_ d_lut_OAI21X1
ANAND2X1_38 [_180_ _184_] _0__14_ d_lut_NAND2X1
AOAI21X1_35 [_181_ _178_ _183_] _11__3_ d_lut_OAI21X1
AINVX1_32 [i_add_term1_12_] _185_ d_lut_INVX1
ANOR2X1_38 [i_add_term2_12_ _185_] _186_ d_lut_NOR2X1
AINVX1_33 [i_add_term2_12_] _187_ d_lut_INVX1
ANOR2X1_39 [i_add_term1_12_ _187_] _188_ d_lut_NOR2X1
AINVX1_34 [i_add_term1_13_] _189_ d_lut_INVX1
ANOR2X1_40 [i_add_term2_13_ _189_] _190_ d_lut_NOR2X1
AINVX1_35 [i_add_term2_13_] _191_ d_lut_INVX1
ANOR2X1_41 [i_add_term1_13_ _191_] _192_ d_lut_NOR2X1
AOAI22X1_4 [_186_ _188_ _190_ _192_] _193_ d_lut_OAI22X1
ANOR2X1_42 [i_add_term2_15_ i_add_term1_15_] _194_ d_lut_NOR2X1
AAND2X2_20 [i_add_term2_15_ i_add_term1_15_] _195_ d_lut_AND2X2
ANOR2X1_43 [_194_ _195_] _196_ d_lut_NOR2X1
AXOR2X1_4 [i_add_term2_14_ i_add_term1_14_] _197_ d_lut_XOR2X1
ANAND2X1_39 [_196_ _197_] _198_ d_lut_NAND2X1
ANOR2X1_44 [_193_ _198_] _12_ d_lut_NOR2X1
AINVX1_36 [_10_] _199_ d_lut_INVX1
ANAND2X1_40 [gnd _12_] _200_ d_lut_NAND2X1
AOAI21X1_36 [_12_ _199_ _200_] w_cout_4_ d_lut_OAI21X1
AINVX1_37 [w_cout_4_] _204_ d_lut_INVX1
AOR2X2_17 [i_add_term2_16_ i_add_term1_16_] _205_ d_lut_OR2X2
ANAND2X1_41 [i_add_term2_16_ i_add_term1_16_] _206_ d_lut_NAND2X1
ANAND3X1_17 [_204_ _206_ _205_] _207_ d_lut_NAND3X1
ANOR2X1_45 [i_add_term2_16_ i_add_term1_16_] _201_ d_lut_NOR2X1
AAND2X2_21 [i_add_term2_16_ i_add_term1_16_] _202_ d_lut_AND2X2
AOAI21X1_37 [_201_ _202_ w_cout_4_] _203_ d_lut_OAI21X1
ANAND2X1_42 [_203_ _207_] _0__16_ d_lut_NAND2X1
AOAI21X1_38 [_204_ _201_ _206_] _14__1_ d_lut_OAI21X1
AINVX1_38 [_14__3_] _211_ d_lut_INVX1
AOR2X2_18 [i_add_term2_19_ i_add_term1_19_] _212_ d_lut_OR2X2
ANAND2X1_43 [i_add_term2_19_ i_add_term1_19_] _213_ d_lut_NAND2X1
ANAND3X1_18 [_211_ _213_ _212_] _214_ d_lut_NAND3X1
ANOR2X1_46 [i_add_term2_19_ i_add_term1_19_] _208_ d_lut_NOR2X1
AAND2X2_22 [i_add_term2_19_ i_add_term1_19_] _209_ d_lut_AND2X2
AOAI21X1_39 [_208_ _209_ _14__3_] _210_ d_lut_OAI21X1
ANAND2X1_44 [_210_ _214_] _0__19_ d_lut_NAND2X1
AOAI21X1_40 [_211_ _208_ _213_] _13_ d_lut_OAI21X1
AINVX1_39 [_14__1_] _218_ d_lut_INVX1
AOR2X2_19 [i_add_term2_17_ i_add_term1_17_] _219_ d_lut_OR2X2
ANAND2X1_45 [i_add_term2_17_ i_add_term1_17_] _220_ d_lut_NAND2X1
ANAND3X1_19 [_218_ _220_ _219_] _221_ d_lut_NAND3X1
ANOR2X1_47 [i_add_term2_17_ i_add_term1_17_] _215_ d_lut_NOR2X1
AAND2X2_23 [i_add_term2_17_ i_add_term1_17_] _216_ d_lut_AND2X2
AOAI21X1_41 [_215_ _216_ _14__1_] _217_ d_lut_OAI21X1
ANAND2X1_46 [_217_ _221_] _0__17_ d_lut_NAND2X1
AOAI21X1_42 [_218_ _215_ _220_] _14__2_ d_lut_OAI21X1
AINVX1_40 [_14__2_] _225_ d_lut_INVX1
AOR2X2_20 [i_add_term2_18_ i_add_term1_18_] _226_ d_lut_OR2X2
ANAND2X1_47 [i_add_term2_18_ i_add_term1_18_] _227_ d_lut_NAND2X1
ANAND3X1_20 [_225_ _227_ _226_] _228_ d_lut_NAND3X1
ANOR2X1_48 [i_add_term2_18_ i_add_term1_18_] _222_ d_lut_NOR2X1
AAND2X2_24 [i_add_term2_18_ i_add_term1_18_] _223_ d_lut_AND2X2
AOAI21X1_43 [_222_ _223_ _14__2_] _224_ d_lut_OAI21X1
ANAND2X1_48 [_224_ _228_] _0__18_ d_lut_NAND2X1
AOAI21X1_44 [_225_ _222_ _227_] _14__3_ d_lut_OAI21X1
AINVX1_41 [i_add_term1_16_] _229_ d_lut_INVX1
ANOR2X1_49 [i_add_term2_16_ _229_] _230_ d_lut_NOR2X1
AINVX1_42 [i_add_term2_16_] _231_ d_lut_INVX1
ANOR2X1_50 [i_add_term1_16_ _231_] _232_ d_lut_NOR2X1
AINVX1_43 [i_add_term1_17_] _233_ d_lut_INVX1
ANOR2X1_51 [i_add_term2_17_ _233_] _234_ d_lut_NOR2X1
AINVX1_44 [i_add_term2_17_] _235_ d_lut_INVX1
ANOR2X1_52 [i_add_term1_17_ _235_] _236_ d_lut_NOR2X1
AOAI22X1_5 [_230_ _232_ _234_ _236_] _237_ d_lut_OAI22X1
ANOR2X1_53 [i_add_term2_19_ i_add_term1_19_] _238_ d_lut_NOR2X1
AAND2X2_25 [i_add_term2_19_ i_add_term1_19_] _239_ d_lut_AND2X2
ANOR2X1_54 [_238_ _239_] _240_ d_lut_NOR2X1
AXOR2X1_5 [i_add_term2_18_ i_add_term1_18_] _241_ d_lut_XOR2X1
ANAND2X1_49 [_240_ _241_] _242_ d_lut_NAND2X1
ANOR2X1_55 [_237_ _242_] _15_ d_lut_NOR2X1
AINVX1_45 [_13_] _243_ d_lut_INVX1
ANAND2X1_50 [gnd _15_] _244_ d_lut_NAND2X1
AOAI21X1_45 [_15_ _243_ _244_] w_cout_5_ d_lut_OAI21X1
AINVX1_46 [w_cout_5_] _248_ d_lut_INVX1
AOR2X2_21 [i_add_term2_20_ i_add_term1_20_] _249_ d_lut_OR2X2
ANAND2X1_51 [i_add_term2_20_ i_add_term1_20_] _250_ d_lut_NAND2X1
ANAND3X1_21 [_248_ _250_ _249_] _251_ d_lut_NAND3X1
ANOR2X1_56 [i_add_term2_20_ i_add_term1_20_] _245_ d_lut_NOR2X1
AAND2X2_26 [i_add_term2_20_ i_add_term1_20_] _246_ d_lut_AND2X2
AOAI21X1_46 [_245_ _246_ w_cout_5_] _247_ d_lut_OAI21X1
ANAND2X1_52 [_247_ _251_] _0__20_ d_lut_NAND2X1
AOAI21X1_47 [_248_ _245_ _250_] _17__1_ d_lut_OAI21X1
AINVX1_47 [_17__3_] _255_ d_lut_INVX1
AOR2X2_22 [i_add_term2_23_ i_add_term1_23_] _256_ d_lut_OR2X2
ANAND2X1_53 [i_add_term2_23_ i_add_term1_23_] _257_ d_lut_NAND2X1
ANAND3X1_22 [_255_ _257_ _256_] _258_ d_lut_NAND3X1
ANOR2X1_57 [i_add_term2_23_ i_add_term1_23_] _252_ d_lut_NOR2X1
AAND2X2_27 [i_add_term2_23_ i_add_term1_23_] _253_ d_lut_AND2X2
AOAI21X1_48 [_252_ _253_ _17__3_] _254_ d_lut_OAI21X1
ANAND2X1_54 [_254_ _258_] _0__23_ d_lut_NAND2X1
AOAI21X1_49 [_255_ _252_ _257_] _16_ d_lut_OAI21X1
AINVX1_48 [_17__1_] _262_ d_lut_INVX1
AOR2X2_23 [i_add_term2_21_ i_add_term1_21_] _263_ d_lut_OR2X2
ANAND2X1_55 [i_add_term2_21_ i_add_term1_21_] _264_ d_lut_NAND2X1
ANAND3X1_23 [_262_ _264_ _263_] _265_ d_lut_NAND3X1
ANOR2X1_58 [i_add_term2_21_ i_add_term1_21_] _259_ d_lut_NOR2X1
AAND2X2_28 [i_add_term2_21_ i_add_term1_21_] _260_ d_lut_AND2X2
AOAI21X1_50 [_259_ _260_ _17__1_] _261_ d_lut_OAI21X1
ANAND2X1_56 [_261_ _265_] _0__21_ d_lut_NAND2X1
AOAI21X1_51 [_262_ _259_ _264_] _17__2_ d_lut_OAI21X1
AINVX1_49 [_17__2_] _269_ d_lut_INVX1
AOR2X2_24 [i_add_term2_22_ i_add_term1_22_] _270_ d_lut_OR2X2
ANAND2X1_57 [i_add_term2_22_ i_add_term1_22_] _271_ d_lut_NAND2X1
ANAND3X1_24 [_269_ _271_ _270_] _272_ d_lut_NAND3X1
ANOR2X1_59 [i_add_term2_22_ i_add_term1_22_] _266_ d_lut_NOR2X1
AAND2X2_29 [i_add_term2_22_ i_add_term1_22_] _267_ d_lut_AND2X2
AOAI21X1_52 [_266_ _267_ _17__2_] _268_ d_lut_OAI21X1
ANAND2X1_58 [_268_ _272_] _0__22_ d_lut_NAND2X1
AOAI21X1_53 [_269_ _266_ _271_] _17__3_ d_lut_OAI21X1
AINVX1_50 [i_add_term1_20_] _273_ d_lut_INVX1
ANOR2X1_60 [i_add_term2_20_ _273_] _274_ d_lut_NOR2X1
AINVX1_51 [i_add_term2_20_] _275_ d_lut_INVX1
ANOR2X1_61 [i_add_term1_20_ _275_] _276_ d_lut_NOR2X1
AINVX1_52 [i_add_term1_21_] _277_ d_lut_INVX1
ANOR2X1_62 [i_add_term2_21_ _277_] _278_ d_lut_NOR2X1
AINVX1_53 [i_add_term2_21_] _279_ d_lut_INVX1
ANOR2X1_63 [i_add_term1_21_ _279_] _280_ d_lut_NOR2X1
AOAI22X1_6 [_274_ _276_ _278_ _280_] _281_ d_lut_OAI22X1
ANOR2X1_64 [i_add_term2_23_ i_add_term1_23_] _282_ d_lut_NOR2X1
AAND2X2_30 [i_add_term2_23_ i_add_term1_23_] _283_ d_lut_AND2X2
ANOR2X1_65 [_282_ _283_] _284_ d_lut_NOR2X1
AXOR2X1_6 [i_add_term2_22_ i_add_term1_22_] _285_ d_lut_XOR2X1
ANAND2X1_59 [_284_ _285_] _286_ d_lut_NAND2X1
ANOR2X1_66 [_281_ _286_] _18_ d_lut_NOR2X1
AINVX1_54 [_16_] _287_ d_lut_INVX1
ANAND2X1_60 [gnd _18_] _288_ d_lut_NAND2X1
AOAI21X1_54 [_18_ _287_ _288_] w_cout_6_ d_lut_OAI21X1
AINVX1_55 [w_cout_6_] _292_ d_lut_INVX1
AOR2X2_25 [i_add_term2_24_ i_add_term1_24_] _293_ d_lut_OR2X2
ANAND2X1_61 [i_add_term2_24_ i_add_term1_24_] _294_ d_lut_NAND2X1
ANAND3X1_25 [_292_ _294_ _293_] _295_ d_lut_NAND3X1
ANOR2X1_67 [i_add_term2_24_ i_add_term1_24_] _289_ d_lut_NOR2X1
AAND2X2_31 [i_add_term2_24_ i_add_term1_24_] _290_ d_lut_AND2X2
AOAI21X1_55 [_289_ _290_ w_cout_6_] _291_ d_lut_OAI21X1
ANAND2X1_62 [_291_ _295_] _0__24_ d_lut_NAND2X1
AOAI21X1_56 [_292_ _289_ _294_] _20__1_ d_lut_OAI21X1
AINVX1_56 [_20__3_] _299_ d_lut_INVX1
AOR2X2_26 [i_add_term2_27_ i_add_term1_27_] _300_ d_lut_OR2X2
ANAND2X1_63 [i_add_term2_27_ i_add_term1_27_] _301_ d_lut_NAND2X1
ANAND3X1_26 [_299_ _301_ _300_] _302_ d_lut_NAND3X1
ANOR2X1_68 [i_add_term2_27_ i_add_term1_27_] _296_ d_lut_NOR2X1
AAND2X2_32 [i_add_term2_27_ i_add_term1_27_] _297_ d_lut_AND2X2
AOAI21X1_57 [_296_ _297_ _20__3_] _298_ d_lut_OAI21X1
ANAND2X1_64 [_298_ _302_] _0__27_ d_lut_NAND2X1
AOAI21X1_58 [_299_ _296_ _301_] _19_ d_lut_OAI21X1
AINVX1_57 [_20__1_] _306_ d_lut_INVX1
AOR2X2_27 [i_add_term2_25_ i_add_term1_25_] _307_ d_lut_OR2X2
ANAND2X1_65 [i_add_term2_25_ i_add_term1_25_] _308_ d_lut_NAND2X1
ANAND3X1_27 [_306_ _308_ _307_] _309_ d_lut_NAND3X1
ANOR2X1_69 [i_add_term2_25_ i_add_term1_25_] _303_ d_lut_NOR2X1
AAND2X2_33 [i_add_term2_25_ i_add_term1_25_] _304_ d_lut_AND2X2
AOAI21X1_59 [_303_ _304_ _20__1_] _305_ d_lut_OAI21X1
ANAND2X1_66 [_305_ _309_] _0__25_ d_lut_NAND2X1
AOAI21X1_60 [_306_ _303_ _308_] _20__2_ d_lut_OAI21X1
AINVX1_58 [_20__2_] _313_ d_lut_INVX1
AOR2X2_28 [i_add_term2_26_ i_add_term1_26_] _314_ d_lut_OR2X2
ANAND2X1_67 [i_add_term2_26_ i_add_term1_26_] _315_ d_lut_NAND2X1
ANAND3X1_28 [_313_ _315_ _314_] _316_ d_lut_NAND3X1
ANOR2X1_70 [i_add_term2_26_ i_add_term1_26_] _310_ d_lut_NOR2X1
AAND2X2_34 [i_add_term2_26_ i_add_term1_26_] _311_ d_lut_AND2X2
AOAI21X1_61 [_310_ _311_ _20__2_] _312_ d_lut_OAI21X1
ANAND2X1_68 [_312_ _316_] _0__26_ d_lut_NAND2X1
AOAI21X1_62 [_313_ _310_ _315_] _20__3_ d_lut_OAI21X1
AINVX1_59 [i_add_term1_24_] _317_ d_lut_INVX1
ANOR2X1_71 [i_add_term2_24_ _317_] _318_ d_lut_NOR2X1
AINVX1_60 [i_add_term2_24_] _319_ d_lut_INVX1
ANOR2X1_72 [i_add_term1_24_ _319_] _320_ d_lut_NOR2X1
AINVX1_61 [i_add_term1_25_] _321_ d_lut_INVX1
ANOR2X1_73 [i_add_term2_25_ _321_] _322_ d_lut_NOR2X1
AINVX1_62 [i_add_term2_25_] _323_ d_lut_INVX1
ANOR2X1_74 [i_add_term1_25_ _323_] _324_ d_lut_NOR2X1
AOAI22X1_7 [_318_ _320_ _322_ _324_] _325_ d_lut_OAI22X1
ANOR2X1_75 [i_add_term2_27_ i_add_term1_27_] _326_ d_lut_NOR2X1
AAND2X2_35 [i_add_term2_27_ i_add_term1_27_] _327_ d_lut_AND2X2
ANOR2X1_76 [_326_ _327_] _328_ d_lut_NOR2X1
AXOR2X1_7 [i_add_term2_26_ i_add_term1_26_] _329_ d_lut_XOR2X1
ANAND2X1_69 [_328_ _329_] _330_ d_lut_NAND2X1
ANOR2X1_77 [_325_ _330_] _21_ d_lut_NOR2X1
AINVX1_63 [_19_] _331_ d_lut_INVX1
ANAND2X1_70 [gnd _21_] _332_ d_lut_NAND2X1
AOAI21X1_63 [_21_ _331_ _332_] w_cout_7_ d_lut_OAI21X1
AINVX1_64 [w_cout_7_] _336_ d_lut_INVX1
AOR2X2_29 [i_add_term2_28_ i_add_term1_28_] _337_ d_lut_OR2X2
ANAND2X1_71 [i_add_term2_28_ i_add_term1_28_] _338_ d_lut_NAND2X1
ANAND3X1_29 [_336_ _338_ _337_] _339_ d_lut_NAND3X1
ANOR2X1_78 [i_add_term2_28_ i_add_term1_28_] _333_ d_lut_NOR2X1
AAND2X2_36 [i_add_term2_28_ i_add_term1_28_] _334_ d_lut_AND2X2
AOAI21X1_64 [_333_ _334_ w_cout_7_] _335_ d_lut_OAI21X1
ANAND2X1_72 [_335_ _339_] _0__28_ d_lut_NAND2X1
AOAI21X1_65 [_336_ _333_ _338_] _23__1_ d_lut_OAI21X1
AINVX1_65 [_23__3_] _343_ d_lut_INVX1
AOR2X2_30 [i_add_term2_31_ i_add_term1_31_] _344_ d_lut_OR2X2
ANAND2X1_73 [i_add_term2_31_ i_add_term1_31_] _345_ d_lut_NAND2X1
ANAND3X1_30 [_343_ _345_ _344_] _346_ d_lut_NAND3X1
ANOR2X1_79 [i_add_term2_31_ i_add_term1_31_] _340_ d_lut_NOR2X1
AAND2X2_37 [i_add_term2_31_ i_add_term1_31_] _341_ d_lut_AND2X2
AOAI21X1_66 [_340_ _341_ _23__3_] _342_ d_lut_OAI21X1
ANAND2X1_74 [_342_ _346_] _0__31_ d_lut_NAND2X1
AOAI21X1_67 [_343_ _340_ _345_] _22_ d_lut_OAI21X1
AINVX1_66 [_23__1_] _350_ d_lut_INVX1
AOR2X2_31 [i_add_term2_29_ i_add_term1_29_] _351_ d_lut_OR2X2
ANAND2X1_75 [i_add_term2_29_ i_add_term1_29_] _352_ d_lut_NAND2X1
ANAND3X1_31 [_350_ _352_ _351_] _353_ d_lut_NAND3X1
ANOR2X1_80 [i_add_term2_29_ i_add_term1_29_] _347_ d_lut_NOR2X1
AAND2X2_38 [i_add_term2_29_ i_add_term1_29_] _348_ d_lut_AND2X2
AOAI21X1_68 [_347_ _348_ _23__1_] _349_ d_lut_OAI21X1
ANAND2X1_76 [_349_ _353_] _0__29_ d_lut_NAND2X1
AOAI21X1_69 [_350_ _347_ _352_] _23__2_ d_lut_OAI21X1
AINVX1_67 [_23__2_] _357_ d_lut_INVX1
AOR2X2_32 [i_add_term2_30_ i_add_term1_30_] _358_ d_lut_OR2X2
ANAND2X1_77 [i_add_term2_30_ i_add_term1_30_] _359_ d_lut_NAND2X1
ANAND3X1_32 [_357_ _359_ _358_] _360_ d_lut_NAND3X1
ANOR2X1_81 [i_add_term2_30_ i_add_term1_30_] _354_ d_lut_NOR2X1
AAND2X2_39 [i_add_term2_30_ i_add_term1_30_] _355_ d_lut_AND2X2
AOAI21X1_70 [_354_ _355_ _23__2_] _356_ d_lut_OAI21X1
ANAND2X1_78 [_356_ _360_] _0__30_ d_lut_NAND2X1
AOAI21X1_71 [_357_ _354_ _359_] _23__3_ d_lut_OAI21X1
AINVX1_68 [i_add_term1_28_] _361_ d_lut_INVX1
ANOR2X1_82 [i_add_term2_28_ _361_] _362_ d_lut_NOR2X1
AINVX1_69 [i_add_term2_28_] _363_ d_lut_INVX1
ANOR2X1_83 [i_add_term1_28_ _363_] _364_ d_lut_NOR2X1
AINVX1_70 [i_add_term1_29_] _365_ d_lut_INVX1
ANOR2X1_84 [i_add_term2_29_ _365_] _366_ d_lut_NOR2X1
AINVX1_71 [i_add_term2_29_] _367_ d_lut_INVX1
ANOR2X1_85 [i_add_term1_29_ _367_] _368_ d_lut_NOR2X1
AOAI22X1_8 [_362_ _364_ _366_ _368_] _369_ d_lut_OAI22X1
ANOR2X1_86 [i_add_term2_31_ i_add_term1_31_] _370_ d_lut_NOR2X1
AAND2X2_40 [i_add_term2_31_ i_add_term1_31_] _371_ d_lut_AND2X2
ANOR2X1_87 [_370_ _371_] _372_ d_lut_NOR2X1
AXOR2X1_8 [i_add_term2_30_ i_add_term1_30_] _373_ d_lut_XOR2X1
ANAND2X1_79 [_372_ _373_] _374_ d_lut_NAND2X1
ANOR2X1_88 [_369_ _374_] _24_ d_lut_NOR2X1
AINVX1_72 [_22_] _375_ d_lut_INVX1
ANAND2X1_80 [gnd _24_] _376_ d_lut_NAND2X1
AOAI21X1_72 [_24_ _375_ _376_] cskip2_inst.cin d_lut_OAI21X1
AINVX1_73 [cskip2_inst.cin] _380_ d_lut_INVX1
AOR2X2_33 [i_add_term2_32_ i_add_term1_32_] _381_ d_lut_OR2X2
ANAND2X1_81 [i_add_term2_32_ i_add_term1_32_] _382_ d_lut_NAND2X1
ANAND3X1_33 [_380_ _382_ _381_] _383_ d_lut_NAND3X1
ANOR2X1_89 [i_add_term2_32_ i_add_term1_32_] _377_ d_lut_NOR2X1
AAND2X2_41 [i_add_term2_32_ i_add_term1_32_] _378_ d_lut_AND2X2
AOAI21X1_73 [_377_ _378_ cskip2_inst.cin] _379_ d_lut_OAI21X1
ANAND2X1_82 [_379_ _383_] cskip2_inst.rca0.fa0.o_sum d_lut_NAND2X1
AOAI21X1_74 [_380_ _377_ _382_] cskip2_inst.rca0.c d_lut_OAI21X1
AINVX1_74 [cskip2_inst.rca0.c] _387_ d_lut_INVX1
AOR2X2_34 [i_add_term2_33_ i_add_term1_33_] _388_ d_lut_OR2X2
ANAND2X1_83 [i_add_term2_33_ i_add_term1_33_] _389_ d_lut_NAND2X1
ANAND3X1_34 [_387_ _389_ _388_] _390_ d_lut_NAND3X1
ANOR2X1_90 [i_add_term2_33_ i_add_term1_33_] _384_ d_lut_NOR2X1
AAND2X2_42 [i_add_term2_33_ i_add_term1_33_] _385_ d_lut_AND2X2
AOAI21X1_75 [_384_ _385_ cskip2_inst.rca0.c] _386_ d_lut_OAI21X1
ANAND2X1_84 [_386_ _390_] cskip2_inst.rca0.fa31.o_sum d_lut_NAND2X1
AOAI21X1_76 [_387_ _384_ _389_] cskip2_inst.cout0 d_lut_OAI21X1
AINVX1_75 [i_add_term1_33_] _395_ d_lut_INVX1
ANAND2X1_85 [i_add_term2_33_ _395_] _396_ d_lut_NAND2X1
AINVX1_76 [i_add_term2_33_] _397_ d_lut_INVX1
ANAND2X1_86 [i_add_term1_33_ _397_] _398_ d_lut_NAND2X1
AINVX1_77 [i_add_term1_32_] _391_ d_lut_INVX1
ANAND2X1_87 [i_add_term2_32_ _391_] _392_ d_lut_NAND2X1
AINVX1_78 [i_add_term2_32_] _393_ d_lut_INVX1
ANAND2X1_88 [i_add_term1_32_ _393_] _394_ d_lut_NAND2X1
AAOI22X1_1 [_396_ _398_ _392_ _394_] cskip2_inst.skip0.P d_lut_AOI22X1
AINVX1_79 [cskip2_inst.cout0] _399_ d_lut_INVX1
ANAND2X1_89 [gnd cskip2_inst.skip0.P] _400_ d_lut_NAND2X1
AOAI21X1_77 [cskip2_inst.skip0.P _399_ _400_] w_cout_9_ d_lut_OAI21X1
ABUFX2_36 [cskip2_inst.rca0.fa0.o_sum] _0__32_ d_lut_BUFX2
ABUFX2_37 [cskip2_inst.rca0.fa31.o_sum] _0__33_ d_lut_BUFX2
ABUFX2_38 [gnd] w_cout_0_ d_lut_BUFX2
ABUFX2_39 [cskip2_inst.cin] w_cout_8_ d_lut_BUFX2

.model todig_3v3 adc_bridge(in_high=2.1999999999999997 in_low=1.0999999999999999 rise_delay=10n fall_delay=10n)
.model toana_3v3 dac_bridge(out_high=3.3 out_low=0)

.model ddflop d_dff(ic=0 rise_delay=1n fall_delay=1n)
.model dzero d_pulldown(load=1p)
.model done d_pullup(load=1p)

AA2D1 [a_vdd] [vdd] todig_3v3
AA2D2 [a_gnd] [gnd] todig_3v3
AA2D3 [a_i_add_term1_0_] [i_add_term1_0_] todig_3v3
AA2D4 [a_i_add_term1_1_] [i_add_term1_1_] todig_3v3
AA2D5 [a_i_add_term1_2_] [i_add_term1_2_] todig_3v3
AA2D6 [a_i_add_term1_3_] [i_add_term1_3_] todig_3v3
AA2D7 [a_i_add_term1_4_] [i_add_term1_4_] todig_3v3
AA2D8 [a_i_add_term1_5_] [i_add_term1_5_] todig_3v3
AA2D9 [a_i_add_term1_6_] [i_add_term1_6_] todig_3v3
AA2D10 [a_i_add_term1_7_] [i_add_term1_7_] todig_3v3
AA2D11 [a_i_add_term1_8_] [i_add_term1_8_] todig_3v3
AA2D12 [a_i_add_term1_9_] [i_add_term1_9_] todig_3v3
AA2D13 [a_i_add_term1_10_] [i_add_term1_10_] todig_3v3
AA2D14 [a_i_add_term1_11_] [i_add_term1_11_] todig_3v3
AA2D15 [a_i_add_term1_12_] [i_add_term1_12_] todig_3v3
AA2D16 [a_i_add_term1_13_] [i_add_term1_13_] todig_3v3
AA2D17 [a_i_add_term1_14_] [i_add_term1_14_] todig_3v3
AA2D18 [a_i_add_term1_15_] [i_add_term1_15_] todig_3v3
AA2D19 [a_i_add_term1_16_] [i_add_term1_16_] todig_3v3
AA2D20 [a_i_add_term1_17_] [i_add_term1_17_] todig_3v3
AA2D21 [a_i_add_term1_18_] [i_add_term1_18_] todig_3v3
AA2D22 [a_i_add_term1_19_] [i_add_term1_19_] todig_3v3
AA2D23 [a_i_add_term1_20_] [i_add_term1_20_] todig_3v3
AA2D24 [a_i_add_term1_21_] [i_add_term1_21_] todig_3v3
AA2D25 [a_i_add_term1_22_] [i_add_term1_22_] todig_3v3
AA2D26 [a_i_add_term1_23_] [i_add_term1_23_] todig_3v3
AA2D27 [a_i_add_term1_24_] [i_add_term1_24_] todig_3v3
AA2D28 [a_i_add_term1_25_] [i_add_term1_25_] todig_3v3
AA2D29 [a_i_add_term1_26_] [i_add_term1_26_] todig_3v3
AA2D30 [a_i_add_term1_27_] [i_add_term1_27_] todig_3v3
AA2D31 [a_i_add_term1_28_] [i_add_term1_28_] todig_3v3