* XSpice netlist created from SPICE and liberty sources by spi2xspice.py
*SPICE netlist created from BLIF module CSkipA_56bit by blif2BSpice
.subckt CSkipA_56bit a_vdd a_gnd a_i_add_term1_0_ a_i_add_term1_1_ a_i_add_term1_2_ a_i_add_term1_3_ a_i_add_term1_4_ a_i_add_term1_5_ a_i_add_term1_6_ a_i_add_term1_7_ a_i_add_term1_8_ a_i_add_term1_9_ a_i_add_term1_10_ a_i_add_term1_11_ a_i_add_term1_12_ a_i_add_term1_13_ a_i_add_term1_14_ a_i_add_term1_15_ a_i_add_term1_16_ a_i_add_term1_17_ a_i_add_term1_18_ a_i_add_term1_19_ a_i_add_term1_20_ a_i_add_term1_21_ a_i_add_term1_22_ a_i_add_term1_23_ a_i_add_term1_24_ a_i_add_term1_25_ a_i_add_term1_26_ a_i_add_term1_27_ a_i_add_term1_28_ a_i_add_term1_29_ a_i_add_term1_30_ a_i_add_term1_31_ a_i_add_term1_32_ a_i_add_term1_33_ a_i_add_term1_34_ a_i_add_term1_35_ a_i_add_term1_36_ a_i_add_term1_37_ a_i_add_term1_38_ a_i_add_term1_39_ a_i_add_term1_40_ a_i_add_term1_41_ a_i_add_term1_42_ a_i_add_term1_43_ a_i_add_term1_44_ a_i_add_term1_45_ a_i_add_term1_46_ a_i_add_term1_47_ a_i_add_term1_48_ a_i_add_term1_49_ a_i_add_term1_50_ a_i_add_term1_51_ a_i_add_term1_52_ a_i_add_term1_53_ a_i_add_term1_54_ a_i_add_term1_55_ a_i_add_term2_0_ a_i_add_term2_1_ a_i_add_term2_2_ a_i_add_term2_3_ a_i_add_term2_4_ a_i_add_term2_5_ a_i_add_term2_6_ a_i_add_term2_7_ a_i_add_term2_8_ a_i_add_term2_9_ a_i_add_term2_10_ a_i_add_term2_11_ a_i_add_term2_12_ a_i_add_term2_13_ a_i_add_term2_14_ a_i_add_term2_15_ a_i_add_term2_16_ a_i_add_term2_17_ a_i_add_term2_18_ a_i_add_term2_19_ a_i_add_term2_20_ a_i_add_term2_21_ a_i_add_term2_22_ a_i_add_term2_23_ a_i_add_term2_24_ a_i_add_term2_25_ a_i_add_term2_26_ a_i_add_term2_27_ a_i_add_term2_28_ a_i_add_term2_29_ a_i_add_term2_30_ a_i_add_term2_31_ a_i_add_term2_32_ a_i_add_term2_33_ a_i_add_term2_34_ a_i_add_term2_35_ a_i_add_term2_36_ a_i_add_term2_37_ a_i_add_term2_38_ a_i_add_term2_39_ a_i_add_term2_40_ a_i_add_term2_41_ a_i_add_term2_42_ a_i_add_term2_43_ a_i_add_term2_44_ a_i_add_term2_45_ a_i_add_term2_46_ a_i_add_term2_47_ a_i_add_term2_48_ a_i_add_term2_49_ a_i_add_term2_50_ a_i_add_term2_51_ a_i_add_term2_52_ a_i_add_term2_53_ a_i_add_term2_54_ a_i_add_term2_55_ a_sum_0_ a_sum_1_ a_sum_2_ a_sum_3_ a_sum_4_ a_sum_5_ a_sum_6_ a_sum_7_ a_sum_8_ a_sum_9_ a_sum_10_ a_sum_11_ a_sum_12_ a_sum_13_ a_sum_14_ a_sum_15_ a_sum_16_ a_sum_17_ a_sum_18_ a_sum_19_ a_sum_20_ a_sum_21_ a_sum_22_ a_sum_23_ a_sum_24_ a_sum_25_ a_sum_26_ a_sum_27_ a_sum_28_ a_sum_29_ a_sum_30_ a_sum_31_ a_sum_32_ a_sum_33_ a_sum_34_ a_sum_35_ a_sum_36_ a_sum_37_ a_sum_38_ a_sum_39_ a_sum_40_ a_sum_41_ a_sum_42_ a_sum_43_ a_sum_44_ a_sum_45_ a_sum_46_ a_sum_47_ a_sum_48_ a_sum_49_ a_sum_50_ a_sum_51_ a_sum_52_ a_sum_53_ a_sum_54_ a_sum_55_ a_cout
AOAI21X1_1 [_270_ _267_ _272_] _16_ d_lut_OAI21X1
AINVX1_1 [_17__1_] _277_ d_lut_INVX1
AOR2X2_1 [i_add_term2_25_ i_add_term1_25_] _278_ d_lut_OR2X2
ANAND2X1_1 [i_add_term2_25_ i_add_term1_25_] _279_ d_lut_NAND2X1
ANAND3X1_1 [_277_ _279_ _278_] _280_ d_lut_NAND3X1
ANOR2X1_1 [i_add_term2_25_ i_add_term1_25_] _274_ d_lut_NOR2X1
AAND2X2_1 [i_add_term2_25_ i_add_term1_25_] _275_ d_lut_AND2X2
AOAI21X1_2 [_274_ _275_ _17__1_] _276_ d_lut_OAI21X1
ANAND2X1_2 [_276_ _280_] _0__25_ d_lut_NAND2X1
AOAI21X1_3 [_277_ _274_ _279_] _17__2_ d_lut_OAI21X1
AINVX1_2 [_17__2_] _284_ d_lut_INVX1
AOR2X2_2 [i_add_term2_26_ i_add_term1_26_] _285_ d_lut_OR2X2
ANAND2X1_3 [i_add_term2_26_ i_add_term1_26_] _286_ d_lut_NAND2X1
ANAND3X1_2 [_284_ _286_ _285_] _287_ d_lut_NAND3X1
ANOR2X1_2 [i_add_term2_26_ i_add_term1_26_] _281_ d_lut_NOR2X1
AAND2X2_2 [i_add_term2_26_ i_add_term1_26_] _282_ d_lut_AND2X2
AOAI21X1_4 [_281_ _282_ _17__2_] _283_ d_lut_OAI21X1
ANAND2X1_4 [_283_ _287_] _0__26_ d_lut_NAND2X1
AOAI21X1_5 [_284_ _281_ _286_] _17__3_ d_lut_OAI21X1
AINVX1_3 [i_add_term1_24_] _288_ d_lut_INVX1
ANOR2X1_3 [i_add_term2_24_ _288_] _289_ d_lut_NOR2X1
AINVX1_4 [i_add_term2_24_] _290_ d_lut_INVX1
ANOR2X1_4 [i_add_term1_24_ _290_] _291_ d_lut_NOR2X1
AINVX1_5 [i_add_term1_25_] _292_ d_lut_INVX1
ANOR2X1_5 [i_add_term2_25_ _292_] _293_ d_lut_NOR2X1
AINVX1_6 [i_add_term2_25_] _294_ d_lut_INVX1
ANOR2X1_6 [i_add_term1_25_ _294_] _295_ d_lut_NOR2X1
AOAI22X1_1 [_289_ _291_ _293_ _295_] _296_ d_lut_OAI22X1
ANOR2X1_7 [i_add_term2_27_ i_add_term1_27_] _297_ d_lut_NOR2X1
AAND2X2_3 [i_add_term2_27_ i_add_term1_27_] _298_ d_lut_AND2X2
ANOR2X1_8 [_297_ _298_] _299_ d_lut_NOR2X1
AXOR2X1_1 [i_add_term2_26_ i_add_term1_26_] _300_ d_lut_XOR2X1
ANAND2X1_5 [_299_ _300_] _301_ d_lut_NAND2X1
ANOR2X1_9 [_296_ _301_] _18_ d_lut_NOR2X1
AINVX1_7 [_16_] _302_ d_lut_INVX1
ANAND2X1_6 [gnd _18_] _303_ d_lut_NAND2X1
AOAI21X1_6 [_18_ _302_ _303_] w_cout_6_ d_lut_OAI21X1
AINVX1_8 [w_cout_6_] _307_ d_lut_INVX1
AOR2X2_3 [i_add_term2_28_ i_add_term1_28_] _308_ d_lut_OR2X2
ANAND2X1_7 [i_add_term2_28_ i_add_term1_28_] _309_ d_lut_NAND2X1
ANAND3X1_3 [_307_ _309_ _308_] _310_ d_lut_NAND3X1
ANOR2X1_10 [i_add_term2_28_ i_add_term1_28_] _304_ d_lut_NOR2X1
AAND2X2_4 [i_add_term2_28_ i_add_term1_28_] _305_ d_lut_AND2X2
AOAI21X1_7 [_304_ _305_ w_cout_6_] _306_ d_lut_OAI21X1
ANAND2X1_8 [_306_ _310_] _0__28_ d_lut_NAND2X1
AOAI21X1_8 [_307_ _304_ _309_] _20__1_ d_lut_OAI21X1
AINVX1_9 [_20__3_] _314_ d_lut_INVX1
AOR2X2_4 [i_add_term2_31_ i_add_term1_31_] _315_ d_lut_OR2X2
ANAND2X1_9 [i_add_term2_31_ i_add_term1_31_] _316_ d_lut_NAND2X1
ANAND3X1_4 [_314_ _316_ _315_] _317_ d_lut_NAND3X1
ANOR2X1_11 [i_add_term2_31_ i_add_term1_31_] _311_ d_lut_NOR2X1
AAND2X2_5 [i_add_term2_31_ i_add_term1_31_] _312_ d_lut_AND2X2
AOAI21X1_9 [_311_ _312_ _20__3_] _313_ d_lut_OAI21X1
ANAND2X1_10 [_313_ _317_] _0__31_ d_lut_NAND2X1
AOAI21X1_10 [_314_ _311_ _316_] _19_ d_lut_OAI21X1
AINVX1_10 [_20__1_] _321_ d_lut_INVX1
AOR2X2_5 [i_add_term2_29_ i_add_term1_29_] _322_ d_lut_OR2X2
ANAND2X1_11 [i_add_term2_29_ i_add_term1_29_] _323_ d_lut_NAND2X1
ANAND3X1_5 [_321_ _323_ _322_] _324_ d_lut_NAND3X1
ANOR2X1_12 [i_add_term2_29_ i_add_term1_29_] _318_ d_lut_NOR2X1
AAND2X2_6 [i_add_term2_29_ i_add_term1_29_] _319_ d_lut_AND2X2
AOAI21X1_11 [_318_ _319_ _20__1_] _320_ d_lut_OAI21X1
ANAND2X1_12 [_320_ _324_] _0__29_ d_lut_NAND2X1
AOAI21X1_12 [_321_ _318_ _323_] _20__2_ d_lut_OAI21X1
AINVX1_11 [_20__2_] _328_ d_lut_INVX1
AOR2X2_6 [i_add_term2_30_ i_add_term1_30_] _329_ d_lut_OR2X2
ANAND2X1_13 [i_add_term2_30_ i_add_term1_30_] _330_ d_lut_NAND2X1
ANAND3X1_6 [_328_ _330_ _329_] _331_ d_lut_NAND3X1
ANOR2X1_13 [i_add_term2_30_ i_add_term1_30_] _325_ d_lut_NOR2X1
AAND2X2_7 [i_add_term2_30_ i_add_term1_30_] _326_ d_lut_AND2X2
AOAI21X1_13 [_325_ _326_ _20__2_] _327_ d_lut_OAI21X1
ANAND2X1_14 [_327_ _331_] _0__30_ d_lut_NAND2X1
AOAI21X1_14 [_328_ _325_ _330_] _20__3_ d_lut_OAI21X1
AINVX1_12 [i_add_term1_28_] _332_ d_lut_INVX1
ANOR2X1_14 [i_add_term2_28_ _332_] _333_ d_lut_NOR2X1
AINVX1_13 [i_add_term2_28_] _334_ d_lut_INVX1
ANOR2X1_15 [i_add_term1_28_ _334_] _335_ d_lut_NOR2X1
AINVX1_14 [i_add_term1_29_] _336_ d_lut_INVX1
ANOR2X1_16 [i_add_term2_29_ _336_] _337_ d_lut_NOR2X1
AINVX1_15 [i_add_term2_29_] _338_ d_lut_INVX1
ANOR2X1_17 [i_add_term1_29_ _338_] _339_ d_lut_NOR2X1
AOAI22X1_2 [_333_ _335_ _337_ _339_] _340_ d_lut_OAI22X1
ANOR2X1_18 [i_add_term2_31_ i_add_term1_31_] _341_ d_lut_NOR2X1
AAND2X2_8 [i_add_term2_31_ i_add_term1_31_] _342_ d_lut_AND2X2
ANOR2X1_19 [_341_ _342_] _343_ d_lut_NOR2X1
AXOR2X1_2 [i_add_term2_30_ i_add_term1_30_] _344_ d_lut_XOR2X1
ANAND2X1_15 [_343_ _344_] _345_ d_lut_NAND2X1
ANOR2X1_20 [_340_ _345_] _21_ d_lut_NOR2X1
AINVX1_16 [_19_] _346_ d_lut_INVX1
ANAND2X1_16 [gnd _21_] _347_ d_lut_NAND2X1
AOAI21X1_15 [_21_ _346_ _347_] w_cout_7_ d_lut_OAI21X1
AINVX1_17 [w_cout_7_] _351_ d_lut_INVX1
AOR2X2_7 [i_add_term2_32_ i_add_term1_32_] _352_ d_lut_OR2X2
ANAND2X1_17 [i_add_term2_32_ i_add_term1_32_] _353_ d_lut_NAND2X1
ANAND3X1_7 [_351_ _353_ _352_] _354_ d_lut_NAND3X1
ANOR2X1_21 [i_add_term2_32_ i_add_term1_32_] _348_ d_lut_NOR2X1
AAND2X2_9 [i_add_term2_32_ i_add_term1_32_] _349_ d_lut_AND2X2
AOAI21X1_16 [_348_ _349_ w_cout_7_] _350_ d_lut_OAI21X1
ANAND2X1_18 [_350_ _354_] _0__32_ d_lut_NAND2X1
AOAI21X1_17 [_351_ _348_ _353_] _23__1_ d_lut_OAI21X1
AINVX1_18 [_23__3_] _358_ d_lut_INVX1
AOR2X2_8 [i_add_term2_35_ i_add_term1_35_] _359_ d_lut_OR2X2
ANAND2X1_19 [i_add_term2_35_ i_add_term1_35_] _360_ d_lut_NAND2X1
ANAND3X1_8 [_358_ _360_ _359_] _361_ d_lut_NAND3X1
ANOR2X1_22 [i_add_term2_35_ i_add_term1_35_] _355_ d_lut_NOR2X1
AAND2X2_10 [i_add_term2_35_ i_add_term1_35_] _356_ d_lut_AND2X2
AOAI21X1_18 [_355_ _356_ _23__3_] _357_ d_lut_OAI21X1
ANAND2X1_20 [_357_ _361_] _0__35_ d_lut_NAND2X1
AOAI21X1_19 [_358_ _355_ _360_] _22_ d_lut_OAI21X1
AINVX1_19 [_23__1_] _365_ d_lut_INVX1
AOR2X2_9 [i_add_term2_33_ i_add_term1_33_] _366_ d_lut_OR2X2
ANAND2X1_21 [i_add_term2_33_ i_add_term1_33_] _367_ d_lut_NAND2X1
ANAND3X1_9 [_365_ _367_ _366_] _368_ d_lut_NAND3X1
ANOR2X1_23 [i_add_term2_33_ i_add_term1_33_] _362_ d_lut_NOR2X1
AAND2X2_11 [i_add_term2_33_ i_add_term1_33_] _363_ d_lut_AND2X2
AOAI21X1_20 [_362_ _363_ _23__1_] _364_ d_lut_OAI21X1
ANAND2X1_22 [_364_ _368_] _0__33_ d_lut_NAND2X1
AOAI21X1_21 [_365_ _362_ _367_] _23__2_ d_lut_OAI21X1
AINVX1_20 [_23__2_] _372_ d_lut_INVX1
AOR2X2_10 [i_add_term2_34_ i_add_term1_34_] _373_ d_lut_OR2X2
ANAND2X1_23 [i_add_term2_34_ i_add_term1_34_] _374_ d_lut_NAND2X1
ANAND3X1_10 [_372_ _374_ _373_] _375_ d_lut_NAND3X1
ANOR2X1_24 [i_add_term2_34_ i_add_term1_34_] _369_ d_lut_NOR2X1
AAND2X2_12 [i_add_term2_34_ i_add_term1_34_] _370_ d_lut_AND2X2
AOAI21X1_22 [_369_ _370_ _23__2_] _371_ d_lut_OAI21X1
ANAND2X1_24 [_371_ _375_] _0__34_ d_lut_NAND2X1
AOAI21X1_23 [_372_ _369_ _374_] _23__3_ d_lut_OAI21X1
AINVX1_21 [i_add_term1_32_] _376_ d_lut_INVX1
ANOR2X1_25 [i_add_term2_32_ _376_] _377_ d_lut_NOR2X1
AINVX1_22 [i_add_term2_32_] _378_ d_lut_INVX1
ANOR2X1_26 [i_add_term1_32_ _378_] _379_ d_lut_NOR2X1
AINVX1_23 [i_add_term1_33_] _380_ d_lut_INVX1
ANOR2X1_27 [i_add_term2_33_ _380_] _381_ d_lut_NOR2X1
AINVX1_24 [i_add_term2_33_] _382_ d_lut_INVX1
ANOR2X1_28 [i_add_term1_33_ _382_] _383_ d_lut_NOR2X1
AOAI22X1_3 [_377_ _379_ _381_ _383_] _384_ d_lut_OAI22X1
ANOR2X1_29 [i_add_term2_35_ i_add_term1_35_] _385_ d_lut_NOR2X1
AAND2X2_13 [i_add_term2_35_ i_add_term1_35_] _386_ d_lut_AND2X2
ANOR2X1_30 [_385_ _386_] _387_ d_lut_NOR2X1
AXOR2X1_3 [i_add_term2_34_ i_add_term1_34_] _388_ d_lut_XOR2X1
ANAND2X1_25 [_387_ _388_] _389_ d_lut_NAND2X1
ANOR2X1_31 [_384_ _389_] _24_ d_lut_NOR2X1
AINVX1_25 [_22_] _390_ d_lut_INVX1
ANAND2X1_26 [gnd _24_] _391_ d_lut_NAND2X1
AOAI21X1_24 [_24_ _390_ _391_] w_cout_8_ d_lut_OAI21X1
AINVX1_26 [w_cout_8_] _395_ d_lut_INVX1
AOR2X2_11 [i_add_term2_36_ i_add_term1_36_] _396_ d_lut_OR2X2
ANAND2X1_27 [i_add_term2_36_ i_add_term1_36_] _397_ d_lut_NAND2X1
ANAND3X1_11 [_395_ _397_ _396_] _398_ d_lut_NAND3X1
ANOR2X1_32 [i_add_term2_36_ i_add_term1_36_] _392_ d_lut_NOR2X1
AAND2X2_14 [i_add_term2_36_ i_add_term1_36_] _393_ d_lut_AND2X2
AOAI21X1_25 [_392_ _393_ w_cout_8_] _394_ d_lut_OAI21X1
ANAND2X1_28 [_394_ _398_] _0__36_ d_lut_NAND2X1
AOAI21X1_26 [_395_ _392_ _397_] _26__1_ d_lut_OAI21X1
AINVX1_27 [_26__3_] _402_ d_lut_INVX1
AOR2X2_12 [i_add_term2_39_ i_add_term1_39_] _403_ d_lut_OR2X2
ANAND2X1_29 [i_add_term2_39_ i_add_term1_39_] _404_ d_lut_NAND2X1
ANAND3X1_12 [_402_ _404_ _403_] _405_ d_lut_NAND3X1
ANOR2X1_33 [i_add_term2_39_ i_add_term1_39_] _399_ d_lut_NOR2X1
AAND2X2_15 [i_add_term2_39_ i_add_term1_39_] _400_ d_lut_AND2X2
AOAI21X1_27 [_399_ _400_ _26__3_] _401_ d_lut_OAI21X1
ANAND2X1_30 [_401_ _405_] _0__39_ d_lut_NAND2X1
AOAI21X1_28 [_402_ _399_ _404_] _25_ d_lut_OAI21X1
AINVX1_28 [_26__1_] _409_ d_lut_INVX1
AOR2X2_13 [i_add_term2_37_ i_add_term1_37_] _410_ d_lut_OR2X2
ANAND2X1_31 [i_add_term2_37_ i_add_term1_37_] _411_ d_lut_NAND2X1
ANAND3X1_13 [_409_ _411_ _410_] _412_ d_lut_NAND3X1
ANOR2X1_34 [i_add_term2_37_ i_add_term1_37_] _406_ d_lut_NOR2X1
AAND2X2_16 [i_add_term2_37_ i_add_term1_37_] _407_ d_lut_AND2X2
AOAI21X1_29 [_406_ _407_ _26__1_] _408_ d_lut_OAI21X1
ANAND2X1_32 [_408_ _412_] _0__37_ d_lut_NAND2X1
AOAI21X1_30 [_409_ _406_ _411_] _26__2_ d_lut_OAI21X1
AINVX1_29 [_26__2_] _416_ d_lut_INVX1
AOR2X2_14 [i_add_term2_38_ i_add_term1_38_] _417_ d_lut_OR2X2
ANAND2X1_33 [i_add_term2_38_ i_add_term1_38_] _418_ d_lut_NAND2X1
ANAND3X1_14 [_416_ _418_ _417_] _419_ d_lut_NAND3X1
ANOR2X1_35 [i_add_term2_38_ i_add_term1_38_] _413_ d_lut_NOR2X1
AAND2X2_17 [i_add_term2_38_ i_add_term1_38_] _414_ d_lut_AND2X2
AOAI21X1_31 [_413_ _414_ _26__2_] _415_ d_lut_OAI21X1
ANAND2X1_34 [_415_ _419_] _0__38_ d_lut_NAND2X1
AOAI21X1_32 [_416_ _413_ _418_] _26__3_ d_lut_OAI21X1
AINVX1_30 [i_add_term1_36_] _420_ d_lut_INVX1
ANOR2X1_36 [i_add_term2_36_ _420_] _421_ d_lut_NOR2X1
AINVX1_31 [i_add_term2_36_] _422_ d_lut_INVX1
ANOR2X1_37 [i_add_term1_36_ _422_] _423_ d_lut_NOR2X1
AINVX1_32 [i_add_term1_37_] _424_ d_lut_INVX1
ANOR2X1_38 [i_add_term2_37_ _424_] _425_ d_lut_NOR2X1
AINVX1_33 [i_add_term2_37_] _426_ d_lut_INVX1
ANOR2X1_39 [i_add_term1_37_ _426_] _427_ d_lut_NOR2X1
AOAI22X1_4 [_421_ _423_ _425_ _427_] _428_ d_lut_OAI22X1
ANOR2X1_40 [i_add_term2_39_ i_add_term1_39_] _429_ d_lut_NOR2X1
AAND2X2_18 [i_add_term2_39_ i_add_term1_39_] _430_ d_lut_AND2X2
ANOR2X1_41 [_429_ _430_] _431_ d_lut_NOR2X1
AXOR2X1_4 [i_add_term2_38_ i_add_term1_38_] _432_ d_lut_XOR2X1
ANAND2X1_35 [_431_ _432_] _433_ d_lut_NAND2X1
ANOR2X1_42 [_428_ _433_] _27_ d_lut_NOR2X1
AINVX1_34 [_25_] _434_ d_lut_INVX1
ANAND2X1_36 [gnd _27_] _435_ d_lut_NAND2X1
AOAI21X1_33 [_27_ _434_ _435_] w_cout_9_ d_lut_OAI21X1
AINVX1_35 [w_cout_9_] _439_ d_lut_INVX1
AOR2X2_15 [i_add_term2_40_ i_add_term1_40_] _440_ d_lut_OR2X2
ANAND2X1_37 [i_add_term2_40_ i_add_term1_40_] _441_ d_lut_NAND2X1
ANAND3X1_15 [_439_ _441_ _440_] _442_ d_lut_NAND3X1
ANOR2X1_43 [i_add_term2_40_ i_add_term1_40_] _436_ d_lut_NOR2X1
AAND2X2_19 [i_add_term2_40_ i_add_term1_40_] _437_ d_lut_AND2X2
AOAI21X1_34 [_436_ _437_ w_cout_9_] _438_ d_lut_OAI21X1
ANAND2X1_38 [_438_ _442_] _0__40_ d_lut_NAND2X1
AOAI21X1_35 [_439_ _436_ _441_] _29__1_ d_lut_OAI21X1
AINVX1_36 [_29__3_] _446_ d_lut_INVX1
AOR2X2_16 [i_add_term2_43_ i_add_term1_43_] _447_ d_lut_OR2X2
ANAND2X1_39 [i_add_term2_43_ i_add_term1_43_] _448_ d_lut_NAND2X1
ANAND3X1_16 [_446_ _448_ _447_] _449_ d_lut_NAND3X1
ANOR2X1_44 [i_add_term2_43_ i_add_term1_43_] _443_ d_lut_NOR2X1
AAND2X2_20 [i_add_term2_43_ i_add_term1_43_] _444_ d_lut_AND2X2
AOAI21X1_36 [_443_ _444_ _29__3_] _445_ d_lut_OAI21X1
ANAND2X1_40 [_445_ _449_] _0__43_ d_lut_NAND2X1
AOAI21X1_37 [_446_ _443_ _448_] _28_ d_lut_OAI21X1
AINVX1_37 [_29__1_] _453_ d_lut_INVX1
AOR2X2_17 [i_add_term2_41_ i_add_term1_41_] _454_ d_lut_OR2X2
ANAND2X1_41 [i_add_term2_41_ i_add_term1_41_] _455_ d_lut_NAND2X1
ANAND3X1_17 [_453_ _455_ _454_] _456_ d_lut_NAND3X1
ANOR2X1_45 [i_add_term2_41_ i_add_term1_41_] _450_ d_lut_NOR2X1
AAND2X2_21 [i_add_term2_41_ i_add_term1_41_] _451_ d_lut_AND2X2
AOAI21X1_38 [_450_ _451_ _29__1_] _452_ d_lut_OAI21X1
ANAND2X1_42 [_452_ _456_] _0__41_ d_lut_NAND2X1
AOAI21X1_39 [_453_ _450_ _455_] _29__2_ d_lut_OAI21X1
AINVX1_38 [_29__2_] _460_ d_lut_INVX1
AOR2X2_18 [i_add_term2_42_ i_add_term1_42_] _461_ d_lut_OR2X2
ANAND2X1_43 [i_add_term2_42_ i_add_term1_42_] _462_ d_lut_NAND2X1
ANAND3X1_18 [_460_ _462_ _461_] _463_ d_lut_NAND3X1
ANOR2X1_46 [i_add_term2_42_ i_add_term1_42_] _457_ d_lut_NOR2X1
AAND2X2_22 [i_add_term2_42_ i_add_term1_42_] _458_ d_lut_AND2X2
AOAI21X1_40 [_457_ _458_ _29__2_] _459_ d_lut_OAI21X1
ANAND2X1_44 [_459_ _463_] _0__42_ d_lut_NAND2X1
AOAI21X1_41 [_460_ _457_ _462_] _29__3_ d_lut_OAI21X1
AINVX1_39 [i_add_term1_40_] _464_ d_lut_INVX1
ANOR2X1_47 [i_add_term2_40_ _464_] _465_ d_lut_NOR2X1
AINVX1_40 [i_add_term2_40_] _466_ d_lut_INVX1
ANOR2X1_48 [i_add_term1_40_ _466_] _467_ d_lut_NOR2X1
AINVX1_41 [i_add_term1_41_] _468_ d_lut_INVX1
ANOR2X1_49 [i_add_term2_41_ _468_] _469_ d_lut_NOR2X1
AINVX1_42 [i_add_term2_41_] _470_ d_lut_INVX1
ANOR2X1_50 [i_add_term1_41_ _470_] _471_ d_lut_NOR2X1
AOAI22X1_5 [_465_ _467_ _469_ _471_] _472_ d_lut_OAI22X1
ANOR2X1_51 [i_add_term2_43_ i_add_term1_43_] _473_ d_lut_NOR2X1
AAND2X2_23 [i_add_term2_43_ i_add_term1_43_] _474_ d_lut_AND2X2
ANOR2X1_52 [_473_ _474_] _475_ d_lut_NOR2X1
AXOR2X1_5 [i_add_term2_42_ i_add_term1_42_] _476_ d_lut_XOR2X1
ANAND2X1_45 [_475_ _476_] _477_ d_lut_NAND2X1
ANOR2X1_53 [_472_ _477_] _30_ d_lut_NOR2X1
AINVX1_43 [_28_] _478_ d_lut_INVX1
ANAND2X1_46 [gnd _30_] _479_ d_lut_NAND2X1
AOAI21X1_42 [_30_ _478_ _479_] w_cout_10_ d_lut_OAI21X1
AINVX1_44 [w_cout_10_] _483_ d_lut_INVX1
AOR2X2_19 [i_add_term2_44_ i_add_term1_44_] _484_ d_lut_OR2X2
ANAND2X1_47 [i_add_term2_44_ i_add_term1_44_] _485_ d_lut_NAND2X1
ANAND3X1_19 [_483_ _485_ _484_] _486_ d_lut_NAND3X1
ANOR2X1_54 [i_add_term2_44_ i_add_term1_44_] _480_ d_lut_NOR2X1
AAND2X2_24 [i_add_term2_44_ i_add_term1_44_] _481_ d_lut_AND2X2
AOAI21X1_43 [_480_ _481_ w_cout_10_] _482_ d_lut_OAI21X1
ANAND2X1_48 [_482_ _486_] _0__44_ d_lut_NAND2X1
AOAI21X1_44 [_483_ _480_ _485_] _32__1_ d_lut_OAI21X1
AINVX1_45 [_32__3_] _490_ d_lut_INVX1
AOR2X2_20 [i_add_term2_47_ i_add_term1_47_] _491_ d_lut_OR2X2
ANAND2X1_49 [i_add_term2_47_ i_add_term1_47_] _492_ d_lut_NAND2X1
ANAND3X1_20 [_490_ _492_ _491_] _493_ d_lut_NAND3X1
ANOR2X1_55 [i_add_term2_47_ i_add_term1_47_] _487_ d_lut_NOR2X1
AAND2X2_25 [i_add_term2_47_ i_add_term1_47_] _488_ d_lut_AND2X2
AOAI21X1_45 [_487_ _488_ _32__3_] _489_ d_lut_OAI21X1
ANAND2X1_50 [_489_ _493_] _0__47_ d_lut_NAND2X1
AOAI21X1_46 [_490_ _487_ _492_] _31_ d_lut_OAI21X1
AINVX1_46 [_32__1_] _497_ d_lut_INVX1
AOR2X2_21 [i_add_term2_45_ i_add_term1_45_] _498_ d_lut_OR2X2
ANAND2X1_51 [i_add_term2_45_ i_add_term1_45_] _499_ d_lut_NAND2X1
ANAND3X1_21 [_497_ _499_ _498_] _500_ d_lut_NAND3X1
ANOR2X1_56 [i_add_term2_45_ i_add_term1_45_] _494_ d_lut_NOR2X1
AAND2X2_26 [i_add_term2_45_ i_add_term1_45_] _495_ d_lut_AND2X2
AOAI21X1_47 [_494_ _495_ _32__1_] _496_ d_lut_OAI21X1
ANAND2X1_52 [_496_ _500_] _0__45_ d_lut_NAND2X1
AOAI21X1_48 [_497_ _494_ _499_] _32__2_ d_lut_OAI21X1
AINVX1_47 [_32__2_] _504_ d_lut_INVX1
AOR2X2_22 [i_add_term2_46_ i_add_term1_46_] _505_ d_lut_OR2X2
ANAND2X1_53 [i_add_term2_46_ i_add_term1_46_] _506_ d_lut_NAND2X1
ANAND3X1_22 [_504_ _506_ _505_] _507_ d_lut_NAND3X1
ANOR2X1_57 [i_add_term2_46_ i_add_term1_46_] _501_ d_lut_NOR2X1
AAND2X2_27 [i_add_term2_46_ i_add_term1_46_] _502_ d_lut_AND2X2
AOAI21X1_49 [_501_ _502_ _32__2_] _503_ d_lut_OAI21X1
ANAND2X1_54 [_503_ _507_] _0__46_ d_lut_NAND2X1
AOAI21X1_50 [_504_ _501_ _506_] _32__3_ d_lut_OAI21X1
AINVX1_48 [i_add_term1_44_] _508_ d_lut_INVX1
ANOR2X1_58 [i_add_term2_44_ _508_] _509_ d_lut_NOR2X1
AINVX1_49 [i_add_term2_44_] _510_ d_lut_INVX1
ANOR2X1_59 [i_add_term1_44_ _510_] _511_ d_lut_NOR2X1
AINVX1_50 [i_add_term1_45_] _512_ d_lut_INVX1
ANOR2X1_60 [i_add_term2_45_ _512_] _513_ d_lut_NOR2X1
AINVX1_51 [i_add_term2_45_] _514_ d_lut_INVX1
ANOR2X1_61 [i_add_term1_45_ _514_] _515_ d_lut_NOR2X1
AOAI22X1_6 [_509_ _511_ _513_ _515_] _516_ d_lut_OAI22X1
ANOR2X1_62 [i_add_term2_47_ i_add_term1_47_] _517_ d_lut_NOR2X1
AAND2X2_28 [i_add_term2_47_ i_add_term1_47_] _518_ d_lut_AND2X2
ANOR2X1_63 [_517_ _518_] _519_ d_lut_NOR2X1
AXOR2X1_6 [i_add_term2_46_ i_add_term1_46_] _520_ d_lut_XOR2X1
ANAND2X1_55 [_519_ _520_] _521_ d_lut_NAND2X1
ANOR2X1_64 [_516_ _521_] _33_ d_lut_NOR2X1
AINVX1_52 [_31_] _522_ d_lut_INVX1
ANAND2X1_56 [gnd _33_] _523_ d_lut_NAND2X1
AOAI21X1_51 [_33_ _522_ _523_] w_cout_11_ d_lut_OAI21X1
AINVX1_53 [w_cout_11_] _527_ d_lut_INVX1
AOR2X2_23 [i_add_term2_48_ i_add_term1_48_] _528_ d_lut_OR2X2
ANAND2X1_57 [i_add_term2_48_ i_add_term1_48_] _529_ d_lut_NAND2X1
ANAND3X1_23 [_527_ _529_ _528_] _530_ d_lut_NAND3X1
ANOR2X1_65 [i_add_term2_48_ i_add_term1_48_] _524_ d_lut_NOR2X1
AAND2X2_29 [i_add_term2_48_ i_add_term1_48_] _525_ d_lut_AND2X2
AOAI21X1_52 [_524_ _525_ w_cout_11_] _526_ d_lut_OAI21X1
ANAND2X1_58 [_526_ _530_] _0__48_ d_lut_NAND2X1
AOAI21X1_53 [_527_ _524_ _529_] _35__1_ d_lut_OAI21X1
AINVX1_54 [_35__3_] _534_ d_lut_INVX1
AOR2X2_24 [i_add_term2_51_ i_add_term1_51_] _535_ d_lut_OR2X2
ANAND2X1_59 [i_add_term2_51_ i_add_term1_51_] _536_ d_lut_NAND2X1
ANAND3X1_24 [_534_ _536_ _535_] _537_ d_lut_NAND3X1
ANOR2X1_66 [i_add_term2_51_ i_add_term1_51_] _531_ d_lut_NOR2X1
AAND2X2_30 [i_add_term2_51_ i_add_term1_51_] _532_ d_lut_AND2X2
AOAI21X1_54 [_531_ _532_ _35__3_] _533_ d_lut_OAI21X1
ANAND2X1_60 [_533_ _537_] _0__51_ d_lut_NAND2X1
AOAI21X1_55 [_534_ _531_ _536_] _34_ d_lut_OAI21X1
AINVX1_55 [_35__1_] _541_ d_lut_INVX1
AOR2X2_25 [i_add_term2_49_ i_add_term1_49_] _542_ d_lut_OR2X2
ANAND2X1_61 [i_add_term2_49_ i_add_term1_49_] _543_ d_lut_NAND2X1
ANAND3X1_25 [_541_ _543_ _542_] _544_ d_lut_NAND3X1
ANOR2X1_67 [i_add_term2_49_ i_add_term1_49_] _538_ d_lut_NOR2X1
AAND2X2_31 [i_add_term2_49_ i_add_term1_49_] _539_ d_lut_AND2X2
AOAI21X1_56 [_538_ _539_ _35__1_] _540_ d_lut_OAI21X1
ANAND2X1_62 [_540_ _544_] _0__49_ d_lut_NAND2X1
AOAI21X1_57 [_541_ _538_ _543_] _35__2_ d_lut_OAI21X1
AINVX1_56 [_35__2_] _548_ d_lut_INVX1
AOR2X2_26 [i_add_term2_50_ i_add_term1_50_] _549_ d_lut_OR2X2
ANAND2X1_63 [i_add_term2_50_ i_add_term1_50_] _550_ d_lut_NAND2X1
ANAND3X1_26 [_548_ _550_ _549_] _551_ d_lut_NAND3X1
ANOR2X1_68 [i_add_term2_50_ i_add_term1_50_] _545_ d_lut_NOR2X1
AAND2X2_32 [i_add_term2_50_ i_add_term1_50_] _546_ d_lut_AND2X2
AOAI21X1_58 [_545_ _546_ _35__2_] _547_ d_lut_OAI21X1
ANAND2X1_64 [_547_ _551_] _0__50_ d_lut_NAND2X1
AOAI21X1_59 [_548_ _545_ _550_] _35__3_ d_lut_OAI21X1
AINVX1_57 [i_add_term1_48_] _552_ d_lut_INVX1
ANOR2X1_69 [i_add_term2_48_ _552_] _553_ d_lut_NOR2X1
AINVX1_58 [i_add_term2_48_] _554_ d_lut_INVX1
ANOR2X1_70 [i_add_term1_48_ _554_] _555_ d_lut_NOR2X1
AINVX1_59 [i_add_term1_49_] _556_ d_lut_INVX1
ANOR2X1_71 [i_add_term2_49_ _556_] _557_ d_lut_NOR2X1
AINVX1_60 [i_add_term2_49_] _558_ d_lut_INVX1
ANOR2X1_72 [i_add_term1_49_ _558_] _559_ d_lut_NOR2X1
AOAI22X1_7 [_553_ _555_ _557_ _559_] _560_ d_lut_OAI22X1
ANOR2X1_73 [i_add_term2_51_ i_add_term1_51_] _561_ d_lut_NOR2X1
AAND2X2_33 [i_add_term2_51_ i_add_term1_51_] _562_ d_lut_AND2X2
ANOR2X1_74 [_561_ _562_] _563_ d_lut_NOR2X1
AXOR2X1_7 [i_add_term2_50_ i_add_term1_50_] _564_ d_lut_XOR2X1
ANAND2X1_65 [_563_ _564_] _565_ d_lut_NAND2X1
ANOR2X1_75 [_560_ _565_] _36_ d_lut_NOR2X1
AINVX1_61 [_34_] _566_ d_lut_INVX1
ANAND2X1_66 [gnd _36_] _567_ d_lut_NAND2X1
AOAI21X1_60 [_36_ _566_ _567_] w_cout_12_ d_lut_OAI21X1
AINVX1_62 [w_cout_12_] _571_ d_lut_INVX1
AOR2X2_27 [i_add_term2_52_ i_add_term1_52_] _572_ d_lut_OR2X2
ANAND2X1_67 [i_add_term2_52_ i_add_term1_52_] _573_ d_lut_NAND2X1
ANAND3X1_27 [_571_ _573_ _572_] _574_ d_lut_NAND3X1
ANOR2X1_76 [i_add_term2_52_ i_add_term1_52_] _568_ d_lut_NOR2X1
AAND2X2_34 [i_add_term2_52_ i_add_term1_52_] _569_ d_lut_AND2X2
AOAI21X1_61 [_568_ _569_ w_cout_12_] _570_ d_lut_OAI21X1
ANAND2X1_68 [_570_ _574_] _0__52_ d_lut_NAND2X1
AOAI21X1_62 [_571_ _568_ _573_] _38__1_ d_lut_OAI21X1
AINVX1_63 [_38__3_] _578_ d_lut_INVX1
AOR2X2_28 [i_add_term2_55_ i_add_term1_55_] _579_ d_lut_OR2X2
ANAND2X1_69 [i_add_term2_55_ i_add_term1_55_] _580_ d_lut_NAND2X1
ANAND3X1_28 [_578_ _580_ _579_] _581_ d_lut_NAND3X1
ANOR2X1_77 [i_add_term2_55_ i_add_term1_55_] _575_ d_lut_NOR2X1
AAND2X2_35 [i_add_term2_55_ i_add_term1_55_] _576_ d_lut_AND2X2
AOAI21X1_63 [_575_ _576_ _38__3_] _577_ d_lut_OAI21X1
ANAND2X1_70 [_577_ _581_] _0__55_ d_lut_NAND2X1
AOAI21X1_64 [_578_ _575_ _580_] _37_ d_lut_OAI21X1
AINVX1_64 [_38__1_] _585_ d_lut_INVX1
AOR2X2_29 [i_add_term2_53_ i_add_term1_53_] _586_ d_lut_OR2X2
ANAND2X1_71 [i_add_term2_53_ i_add_term1_53_] _587_ d_lut_NAND2X1
ANAND3X1_29 [_585_ _587_ _586_] _588_ d_lut_NAND3X1
ANOR2X1_78 [i_add_term2_53_ i_add_term1_53_] _582_ d_lut_NOR2X1
AAND2X2_36 [i_add_term2_53_ i_add_term1_53_] _583_ d_lut_AND2X2
AOAI21X1_65 [_582_ _583_ _38__1_] _584_ d_lut_OAI21X1
ANAND2X1_72 [_584_ _588_] _0__53_ d_lut_NAND2X1
AOAI21X1_66 [_585_ _582_ _587_] _38__2_ d_lut_OAI21X1
AINVX1_65 [_38__2_] _592_ d_lut_INVX1
AOR2X2_30 [i_add_term2_54_ i_add_term1_54_] _593_ d_lut_OR2X2
ANAND2X1_73 [i_add_term2_54_ i_add_term1_54_] _594_ d_lut_NAND2X1
ANAND3X1_30 [_592_ _594_ _593_] _595_ d_lut_NAND3X1
ANOR2X1_79 [i_add_term2_54_ i_add_term1_54_] _589_ d_lut_NOR2X1
AAND2X2_37 [i_add_term2_54_ i_add_term1_54_] _590_ d_lut_AND2X2
AOAI21X1_67 [_589_ _590_ _38__2_] _591_ d_lut_OAI21X1
ANAND2X1_74 [_591_ _595_] _0__54_ d_lut_NAND2X1
AOAI21X1_68 [_592_ _589_ _594_] _38__3_ d_lut_OAI21X1
AINVX1_66 [i_add_term1_52_] _596_ d_lut_INVX1
ANOR2X1_80 [i_add_term2_52_ _596_] _597_ d_lut_NOR2X1
AINVX1_67 [i_add_term2_52_] _598_ d_lut_INVX1
ANOR2X1_81 [i_add_term1_52_ _598_] _599_ d_lut_NOR2X1
AINVX1_68 [i_add_term1_53_] _600_ d_lut_INVX1
ANOR2X1_82 [i_add_term2_53_ _600_] _601_ d_lut_NOR2X1
AINVX1_69 [i_add_term2_53_] _602_ d_lut_INVX1
ANOR2X1_83 [i_add_term1_53_ _602_] _603_ d_lut_NOR2X1
AOAI22X1_8 [_597_ _599_ _601_ _603_] _604_ d_lut_OAI22X1
ANOR2X1_84 [i_add_term2_55_ i_add_term1_55_] _605_ d_lut_NOR2X1
AAND2X2_38 [i_add_term2_55_ i_add_term1_55_] _606_ d_lut_AND2X2
ANOR2X1_85 [_605_ _606_] _607_ d_lut_NOR2X1
AXOR2X1_8 [i_add_term2_54_ i_add_term1_54_] _608_ d_lut_XOR2X1
ANAND2X1_75 [_607_ _608_] _609_ d_lut_NAND2X1
ANOR2X1_86 [_604_ _609_] _39_ d_lut_NOR2X1
AINVX1_70 [_37_] _610_ d_lut_INVX1
ANAND2X1_76 [gnd _39_] _611_ d_lut_NAND2X1
AOAI21X1_69 [_39_ _610_ _611_] w_cout_13_ d_lut_OAI21X1
AINVX1_71 [gnd] _615_ d_lut_INVX1
AOR2X2_31 [i_add_term2_0_ i_add_term1_0_] _616_ d_lut_OR2X2
ANAND2X1_77 [i_add_term2_0_ i_add_term1_0_] _617_ d_lut_NAND2X1
ANAND3X1_31 [_615_ _617_ _616_] _618_ d_lut_NAND3X1
ANOR2X1_87 [i_add_term2_0_ i_add_term1_0_] _612_ d_lut_NOR2X1
AAND2X2_39 [i_add_term2_0_ i_add_term1_0_] _613_ d_lut_AND2X2
AOAI21X1_70 [_612_ _613_ gnd] _614_ d_lut_OAI21X1
ANAND2X1_78 [_614_ _618_] rca_inst.fa0.o_sum d_lut_NAND2X1
AOAI21X1_71 [_615_ _612_ _617_] rca_inst.fa0.o_carry d_lut_OAI21X1
AINVX1_72 [rca_inst.fa3.i_carry] _622_ d_lut_INVX1
AOR2X2_32 [i_add_term2_3_ i_add_term1_3_] _623_ d_lut_OR2X2
ANAND2X1_79 [i_add_term2_3_ i_add_term1_3_] _624_ d_lut_NAND2X1
ANAND3X1_32 [_622_ _624_ _623_] _625_ d_lut_NAND3X1
ANOR2X1_88 [i_add_term2_3_ i_add_term1_3_] _619_ d_lut_NOR2X1
AAND2X2_40 [i_add_term2_3_ i_add_term1_3_] _620_ d_lut_AND2X2
AOAI21X1_72 [_619_ _620_ rca_inst.fa3.i_carry] _621_ d_lut_OAI21X1
ANAND2X1_80 [_621_ _625_] rca_inst.fa3.o_sum d_lut_NAND2X1
AOAI21X1_73 [_622_ _619_ _624_] cout0 d_lut_OAI21X1
AINVX1_73 [rca_inst.fa0.o_carry] _629_ d_lut_INVX1
AOR2X2_33 [i_add_term2_1_ i_add_term1_1_] _630_ d_lut_OR2X2
ANAND2X1_81 [i_add_term2_1_ i_add_term1_1_] _631_ d_lut_NAND2X1
ANAND3X1_33 [_629_ _631_ _630_] _632_ d_lut_NAND3X1
ANOR2X1_89 [i_add_term2_1_ i_add_term1_1_] _626_ d_lut_NOR2X1
AAND2X2_41 [i_add_term2_1_ i_add_term1_1_] _627_ d_lut_AND2X2
AOAI21X1_74 [_626_ _627_ rca_inst.fa0.o_carry] _628_ d_lut_OAI21X1
ANAND2X1_82 [_628_ _632_] rca_inst.fa_1_.o_sum d_lut_NAND2X1
AOAI21X1_75 [_629_ _626_ _631_] rca_inst.fa_1_.o_carry d_lut_OAI21X1
AINVX1_74 [rca_inst.fa_1_.o_carry] _636_ d_lut_INVX1
AOR2X2_34 [i_add_term2_2_ i_add_term1_2_] _637_ d_lut_OR2X2
ANAND2X1_83 [i_add_term2_2_ i_add_term1_2_] _638_ d_lut_NAND2X1
ANAND3X1_34 [_636_ _638_ _637_] _639_ d_lut_NAND3X1
ANOR2X1_90 [i_add_term2_2_ i_add_term1_2_] _633_ d_lut_NOR2X1
AAND2X2_42 [i_add_term2_2_ i_add_term1_2_] _634_ d_lut_AND2X2
AOAI21X1_76 [_633_ _634_ rca_inst.fa_1_.o_carry] _635_ d_lut_OAI21X1
ANAND2X1_84 [_635_ _639_] rca_inst.fa_2_.o_sum d_lut_NAND2X1
AOAI21X1_77 [_636_ _633_ _638_] rca_inst.fa3.i_carry d_lut_OAI21X1
AINVX1_75 [i_add_term1_0_] _640_ d_lut_INVX1
ANOR2X1_91 [i_add_term2_0_ _640_] _641_ d_lut_NOR2X1
AINVX1_76 [i_add_term2_0_] _642_ d_lut_INVX1
ANOR2X1_92 [i_add_term1_0_ _642_] _643_ d_lut_NOR2X1
AINVX1_77 [i_add_term1_1_] _644_ d_lut_INVX1
ANOR2X1_93 [i_add_term2_1_ _644_] _645_ d_lut_NOR2X1
AINVX1_78 [i_add_term2_1_] _646_ d_lut_INVX1
ANOR2X1_94 [i_add_term1_1_ _646_] _647_ d_lut_NOR2X1
AOAI22X1_9 [_641_ _643_ _645_ _647_] _648_ d_lut_OAI22X1
ANOR2X1_95 [i_add_term2_3_ i_add_term1_3_] _649_ d_lut_NOR2X1
AAND2X2_43 [i_add_term2_3_ i_add_term1_3_] _650_ d_lut_AND2X2
ANOR2X1_96 [_649_ _650_] _651_ d_lut_NOR2X1
AXOR2X1_9 [i_add_term2_2_ i_add_term1_2_] _652_ d_lut_XOR2X1
ANAND2X1_85 [_651_ _652_] _653_ d_lut_NAND2X1
ANOR2X1_97 [_648_ _653_] skip0.P d_lut_NOR2X1
AINVX1_79 [cout0] _654_ d_lut_INVX1
ANAND2X1_86 [gnd skip0.P] _655_ d_lut_NAND2X1
AOAI21X1_78 [skip0.P _654_ _655_] skip0.cin_next d_lut_OAI21X1
ABUFX2_1 [w_cout_13_] cout d_lut_BUFX2
ABUFX2_2 [rca_inst.fa0.o_sum] sum_0_ d_lut_BUFX2
ABUFX2_3 [rca_inst.fa_1_.o_sum] sum_1_ d_lut_BUFX2
ABUFX2_4 [rca_inst.fa_2_.o_sum] sum_2_ d_lut_BUFX2
ABUFX2_5 [rca_inst.fa3.o_sum] sum_3_ d_lut_BUFX2
ABUFX2_6 [_0__4_] sum_4_ d_lut_BUFX2
ABUFX2_7 [_0__5_] sum_5_ d_lut_BUFX2
ABUFX2_8 [_0__6_] sum_6_ d_lut_BUFX2
ABUFX2_9 [_0__7_] sum_7_ d_lut_BUFX2
ABUFX2_10 [_0__8_] sum_8_ d_lut_BUFX2
ABUFX2_11 [_0__9_] sum_9_ d_lut_BUFX2
ABUFX2_12 [_0__10_] sum_10_ d_lut_BUFX2
ABUFX2_13 [_0__11_] sum_11_ d_lut_BUFX2
ABUFX2_14 [_0__12_] sum_12_ d_lut_BUFX2
ABUFX2_15 [_0__13_] sum_13_ d_lut_BUFX2
ABUFX2_16 [_0__14_] sum_14_ d_lut_BUFX2
ABUFX2_17 [_0__15_] sum_15_ d_lut_BUFX2
ABUFX2_18 [_0__16_] sum_16_ d_lut_BUFX2
ABUFX2_19 [_0__17_] sum_17_ d_lut_BUFX2
ABUFX2_20 [_0__18_] sum_18_ d_lut_BUFX2
ABUFX2_21 [_0__19_] sum_19_ d_lut_BUFX2
ABUFX2_22 [_0__20_] sum_20_ d_lut_BUFX2
ABUFX2_23 [_0__21_] sum_21_ d_lut_BUFX2
ABUFX2_24 [_0__22_] sum_22_ d_lut_BUFX2
ABUFX2_25 [_0__23_] sum_23_ d_lut_BUFX2
ABUFX2_26 [_0__24_] sum_24_ d_lut_BUFX2
ABUFX2_27 [_0__25_] sum_25_ d_lut_BUFX2
ABUFX2_28 [_0__26_] sum_26_ d_lut_BUFX2
ABUFX2_29 [_0__27_] sum_27_ d_lut_BUFX2
ABUFX2_30 [_0__28_] sum_28_ d_lut_BUFX2
ABUFX2_31 [_0__29_] sum_29_ d_lut_BUFX2
ABUFX2_32 [_0__30_] sum_30_ d_lut_BUFX2
ABUFX2_33 [_0__31_] sum_31_ d_lut_BUFX2
ABUFX2_34 [_0__32_] sum_32_ d_lut_BUFX2
ABUFX2_35 [_0__33_] sum_33_ d_lut_BUFX2
ABUFX2_36 [_0__34_] sum_34_ d_lut_BUFX2
ABUFX2_37 [_0__35_] sum_35_ d_lut_BUFX2
ABUFX2_38 [_0__36_] sum_36_ d_lut_BUFX2
ABUFX2_39 [_0__37_] sum_37_ d_lut_BUFX2
ABUFX2_40 [_0__38_] sum_38_ d_lut_BUFX2
ABUFX2_41 [_0__39_] sum_39_ d_lut_BUFX2
ABUFX2_42 [_0__40_] sum_40_ d_lut_BUFX2
ABUFX2_43 [_0__41_] sum_41_ d_lut_BUFX2
ABUFX2_44 [_0__42_] sum_42_ d_lut_BUFX2
ABUFX2_45 [_0__43_] sum_43_ d_lut_BUFX2