* XSpice netlist created from SPICE and liberty sources by spi2xspice.py
*SPICE netlist created from BLIF module CSkipA_52bit by blif2BSpice
.subckt CSkipA_52bit a_vdd a_gnd a_i_add_term1_0_ a_i_add_term1_1_ a_i_add_term1_2_ a_i_add_term1_3_ a_i_add_term1_4_ a_i_add_term1_5_ a_i_add_term1_6_ a_i_add_term1_7_ a_i_add_term1_8_ a_i_add_term1_9_ a_i_add_term1_10_ a_i_add_term1_11_ a_i_add_term1_12_ a_i_add_term1_13_ a_i_add_term1_14_ a_i_add_term1_15_ a_i_add_term1_16_ a_i_add_term1_17_ a_i_add_term1_18_ a_i_add_term1_19_ a_i_add_term1_20_ a_i_add_term1_21_ a_i_add_term1_22_ a_i_add_term1_23_ a_i_add_term1_24_ a_i_add_term1_25_ a_i_add_term1_26_ a_i_add_term1_27_ a_i_add_term1_28_ a_i_add_term1_29_ a_i_add_term1_30_ a_i_add_term1_31_ a_i_add_term1_32_ a_i_add_term1_33_ a_i_add_term1_34_ a_i_add_term1_35_ a_i_add_term1_36_ a_i_add_term1_37_ a_i_add_term1_38_ a_i_add_term1_39_ a_i_add_term1_40_ a_i_add_term1_41_ a_i_add_term1_42_ a_i_add_term1_43_ a_i_add_term1_44_ a_i_add_term1_45_ a_i_add_term1_46_ a_i_add_term1_47_ a_i_add_term1_48_ a_i_add_term1_49_ a_i_add_term1_50_ a_i_add_term1_51_ a_i_add_term2_0_ a_i_add_term2_1_ a_i_add_term2_2_ a_i_add_term2_3_ a_i_add_term2_4_ a_i_add_term2_5_ a_i_add_term2_6_ a_i_add_term2_7_ a_i_add_term2_8_ a_i_add_term2_9_ a_i_add_term2_10_ a_i_add_term2_11_ a_i_add_term2_12_ a_i_add_term2_13_ a_i_add_term2_14_ a_i_add_term2_15_ a_i_add_term2_16_ a_i_add_term2_17_ a_i_add_term2_18_ a_i_add_term2_19_ a_i_add_term2_20_ a_i_add_term2_21_ a_i_add_term2_22_ a_i_add_term2_23_ a_i_add_term2_24_ a_i_add_term2_25_ a_i_add_term2_26_ a_i_add_term2_27_ a_i_add_term2_28_ a_i_add_term2_29_ a_i_add_term2_30_ a_i_add_term2_31_ a_i_add_term2_32_ a_i_add_term2_33_ a_i_add_term2_34_ a_i_add_term2_35_ a_i_add_term2_36_ a_i_add_term2_37_ a_i_add_term2_38_ a_i_add_term2_39_ a_i_add_term2_40_ a_i_add_term2_41_ a_i_add_term2_42_ a_i_add_term2_43_ a_i_add_term2_44_ a_i_add_term2_45_ a_i_add_term2_46_ a_i_add_term2_47_ a_i_add_term2_48_ a_i_add_term2_49_ a_i_add_term2_50_ a_i_add_term2_51_ a_sum_0_ a_sum_1_ a_sum_2_ a_sum_3_ a_sum_4_ a_sum_5_ a_sum_6_ a_sum_7_ a_sum_8_ a_sum_9_ a_sum_10_ a_sum_11_ a_sum_12_ a_sum_13_ a_sum_14_ a_sum_15_ a_sum_16_ a_sum_17_ a_sum_18_ a_sum_19_ a_sum_20_ a_sum_21_ a_sum_22_ a_sum_23_ a_sum_24_ a_sum_25_ a_sum_26_ a_sum_27_ a_sum_28_ a_sum_29_ a_sum_30_ a_sum_31_ a_sum_32_ a_sum_33_ a_sum_34_ a_sum_35_ a_sum_36_ a_sum_37_ a_sum_38_ a_sum_39_ a_sum_40_ a_sum_41_ a_sum_42_ a_sum_43_ a_sum_44_ a_sum_45_ a_sum_46_ a_sum_47_ a_sum_48_ a_sum_49_ a_sum_50_ a_sum_51_ a_cout
AAND2X2_1 [i_add_term2_31_ i_add_term1_31_] _309_ d_lut_AND2X2
AOAI21X1_1 [_308_ _309_ _20__3_] _310_ d_lut_OAI21X1
ANAND2X1_1 [_310_ _314_] _0__31_ d_lut_NAND2X1
AOAI21X1_2 [_311_ _308_ _313_] _19_ d_lut_OAI21X1
AINVX1_1 [_20__1_] _318_ d_lut_INVX1
AOR2X2_1 [i_add_term2_29_ i_add_term1_29_] _319_ d_lut_OR2X2
ANAND2X1_2 [i_add_term2_29_ i_add_term1_29_] _320_ d_lut_NAND2X1
ANAND3X1_1 [_318_ _320_ _319_] _321_ d_lut_NAND3X1
ANOR2X1_1 [i_add_term2_29_ i_add_term1_29_] _315_ d_lut_NOR2X1
AAND2X2_2 [i_add_term2_29_ i_add_term1_29_] _316_ d_lut_AND2X2
AOAI21X1_3 [_315_ _316_ _20__1_] _317_ d_lut_OAI21X1
ANAND2X1_3 [_317_ _321_] _0__29_ d_lut_NAND2X1
AOAI21X1_4 [_318_ _315_ _320_] _20__2_ d_lut_OAI21X1
AINVX1_2 [_20__2_] _325_ d_lut_INVX1
AOR2X2_2 [i_add_term2_30_ i_add_term1_30_] _326_ d_lut_OR2X2
ANAND2X1_4 [i_add_term2_30_ i_add_term1_30_] _327_ d_lut_NAND2X1
ANAND3X1_2 [_325_ _327_ _326_] _328_ d_lut_NAND3X1
ANOR2X1_2 [i_add_term2_30_ i_add_term1_30_] _322_ d_lut_NOR2X1
AAND2X2_3 [i_add_term2_30_ i_add_term1_30_] _323_ d_lut_AND2X2
AOAI21X1_5 [_322_ _323_ _20__2_] _324_ d_lut_OAI21X1
ANAND2X1_5 [_324_ _328_] _0__30_ d_lut_NAND2X1
AOAI21X1_6 [_325_ _322_ _327_] _20__3_ d_lut_OAI21X1
AINVX1_3 [i_add_term1_28_] _329_ d_lut_INVX1
ANOR2X1_3 [i_add_term2_28_ _329_] _330_ d_lut_NOR2X1
AINVX1_4 [i_add_term2_28_] _331_ d_lut_INVX1
ANOR2X1_4 [i_add_term1_28_ _331_] _332_ d_lut_NOR2X1
AINVX1_5 [i_add_term1_29_] _333_ d_lut_INVX1
ANOR2X1_5 [i_add_term2_29_ _333_] _334_ d_lut_NOR2X1
AINVX1_6 [i_add_term2_29_] _335_ d_lut_INVX1
ANOR2X1_6 [i_add_term1_29_ _335_] _336_ d_lut_NOR2X1
AOAI22X1_1 [_330_ _332_ _334_ _336_] _337_ d_lut_OAI22X1
ANOR2X1_7 [i_add_term2_31_ i_add_term1_31_] _338_ d_lut_NOR2X1
AAND2X2_4 [i_add_term2_31_ i_add_term1_31_] _339_ d_lut_AND2X2
ANOR2X1_8 [_338_ _339_] _340_ d_lut_NOR2X1
AXOR2X1_1 [i_add_term2_30_ i_add_term1_30_] _341_ d_lut_XOR2X1
ANAND2X1_6 [_340_ _341_] _342_ d_lut_NAND2X1
ANOR2X1_9 [_337_ _342_] _21_ d_lut_NOR2X1
AINVX1_7 [_19_] _343_ d_lut_INVX1
ANAND2X1_7 [gnd _21_] _344_ d_lut_NAND2X1
AOAI21X1_7 [_21_ _343_ _344_] w_cout_7_ d_lut_OAI21X1
AINVX1_8 [w_cout_7_] _348_ d_lut_INVX1
AOR2X2_3 [i_add_term2_32_ i_add_term1_32_] _349_ d_lut_OR2X2
ANAND2X1_8 [i_add_term2_32_ i_add_term1_32_] _350_ d_lut_NAND2X1
ANAND3X1_3 [_348_ _350_ _349_] _351_ d_lut_NAND3X1
ANOR2X1_10 [i_add_term2_32_ i_add_term1_32_] _345_ d_lut_NOR2X1
AAND2X2_5 [i_add_term2_32_ i_add_term1_32_] _346_ d_lut_AND2X2
AOAI21X1_8 [_345_ _346_ w_cout_7_] _347_ d_lut_OAI21X1
ANAND2X1_9 [_347_ _351_] _0__32_ d_lut_NAND2X1
AOAI21X1_9 [_348_ _345_ _350_] _23__1_ d_lut_OAI21X1
AINVX1_9 [_23__3_] _355_ d_lut_INVX1
AOR2X2_4 [i_add_term2_35_ i_add_term1_35_] _356_ d_lut_OR2X2
ANAND2X1_10 [i_add_term2_35_ i_add_term1_35_] _357_ d_lut_NAND2X1
ANAND3X1_4 [_355_ _357_ _356_] _358_ d_lut_NAND3X1
ANOR2X1_11 [i_add_term2_35_ i_add_term1_35_] _352_ d_lut_NOR2X1
AAND2X2_6 [i_add_term2_35_ i_add_term1_35_] _353_ d_lut_AND2X2
AOAI21X1_10 [_352_ _353_ _23__3_] _354_ d_lut_OAI21X1
ANAND2X1_11 [_354_ _358_] _0__35_ d_lut_NAND2X1
AOAI21X1_11 [_355_ _352_ _357_] _22_ d_lut_OAI21X1
AINVX1_10 [_23__1_] _362_ d_lut_INVX1
AOR2X2_5 [i_add_term2_33_ i_add_term1_33_] _363_ d_lut_OR2X2
ANAND2X1_12 [i_add_term2_33_ i_add_term1_33_] _364_ d_lut_NAND2X1
ANAND3X1_5 [_362_ _364_ _363_] _365_ d_lut_NAND3X1
ANOR2X1_12 [i_add_term2_33_ i_add_term1_33_] _359_ d_lut_NOR2X1
AAND2X2_7 [i_add_term2_33_ i_add_term1_33_] _360_ d_lut_AND2X2
AOAI21X1_12 [_359_ _360_ _23__1_] _361_ d_lut_OAI21X1
ANAND2X1_13 [_361_ _365_] _0__33_ d_lut_NAND2X1
AOAI21X1_13 [_362_ _359_ _364_] _23__2_ d_lut_OAI21X1
AINVX1_11 [_23__2_] _369_ d_lut_INVX1
AOR2X2_6 [i_add_term2_34_ i_add_term1_34_] _370_ d_lut_OR2X2
ANAND2X1_14 [i_add_term2_34_ i_add_term1_34_] _371_ d_lut_NAND2X1
ANAND3X1_6 [_369_ _371_ _370_] _372_ d_lut_NAND3X1
ANOR2X1_13 [i_add_term2_34_ i_add_term1_34_] _366_ d_lut_NOR2X1
AAND2X2_8 [i_add_term2_34_ i_add_term1_34_] _367_ d_lut_AND2X2
AOAI21X1_14 [_366_ _367_ _23__2_] _368_ d_lut_OAI21X1
ANAND2X1_15 [_368_ _372_] _0__34_ d_lut_NAND2X1
AOAI21X1_15 [_369_ _366_ _371_] _23__3_ d_lut_OAI21X1
AINVX1_12 [i_add_term1_32_] _373_ d_lut_INVX1
ANOR2X1_14 [i_add_term2_32_ _373_] _374_ d_lut_NOR2X1
AINVX1_13 [i_add_term2_32_] _375_ d_lut_INVX1
ANOR2X1_15 [i_add_term1_32_ _375_] _376_ d_lut_NOR2X1
AINVX1_14 [i_add_term1_33_] _377_ d_lut_INVX1
ANOR2X1_16 [i_add_term2_33_ _377_] _378_ d_lut_NOR2X1
AINVX1_15 [i_add_term2_33_] _379_ d_lut_INVX1
ANOR2X1_17 [i_add_term1_33_ _379_] _380_ d_lut_NOR2X1
AOAI22X1_2 [_374_ _376_ _378_ _380_] _381_ d_lut_OAI22X1
ANOR2X1_18 [i_add_term2_35_ i_add_term1_35_] _382_ d_lut_NOR2X1
AAND2X2_9 [i_add_term2_35_ i_add_term1_35_] _383_ d_lut_AND2X2
ANOR2X1_19 [_382_ _383_] _384_ d_lut_NOR2X1
AXOR2X1_2 [i_add_term2_34_ i_add_term1_34_] _385_ d_lut_XOR2X1
ANAND2X1_16 [_384_ _385_] _386_ d_lut_NAND2X1
ANOR2X1_20 [_381_ _386_] _24_ d_lut_NOR2X1
AINVX1_16 [_22_] _387_ d_lut_INVX1
ANAND2X1_17 [gnd _24_] _388_ d_lut_NAND2X1
AOAI21X1_16 [_24_ _387_ _388_] w_cout_8_ d_lut_OAI21X1
AINVX1_17 [w_cout_8_] _392_ d_lut_INVX1
AOR2X2_7 [i_add_term2_36_ i_add_term1_36_] _393_ d_lut_OR2X2
ANAND2X1_18 [i_add_term2_36_ i_add_term1_36_] _394_ d_lut_NAND2X1
ANAND3X1_7 [_392_ _394_ _393_] _395_ d_lut_NAND3X1
ANOR2X1_21 [i_add_term2_36_ i_add_term1_36_] _389_ d_lut_NOR2X1
AAND2X2_10 [i_add_term2_36_ i_add_term1_36_] _390_ d_lut_AND2X2
AOAI21X1_17 [_389_ _390_ w_cout_8_] _391_ d_lut_OAI21X1
ANAND2X1_19 [_391_ _395_] _0__36_ d_lut_NAND2X1
AOAI21X1_18 [_392_ _389_ _394_] _26__1_ d_lut_OAI21X1
AINVX1_18 [_26__3_] _399_ d_lut_INVX1
AOR2X2_8 [i_add_term2_39_ i_add_term1_39_] _400_ d_lut_OR2X2
ANAND2X1_20 [i_add_term2_39_ i_add_term1_39_] _401_ d_lut_NAND2X1
ANAND3X1_8 [_399_ _401_ _400_] _402_ d_lut_NAND3X1
ANOR2X1_22 [i_add_term2_39_ i_add_term1_39_] _396_ d_lut_NOR2X1
AAND2X2_11 [i_add_term2_39_ i_add_term1_39_] _397_ d_lut_AND2X2
AOAI21X1_19 [_396_ _397_ _26__3_] _398_ d_lut_OAI21X1
ANAND2X1_21 [_398_ _402_] _0__39_ d_lut_NAND2X1
AOAI21X1_20 [_399_ _396_ _401_] _25_ d_lut_OAI21X1
AINVX1_19 [_26__1_] _406_ d_lut_INVX1
AOR2X2_9 [i_add_term2_37_ i_add_term1_37_] _407_ d_lut_OR2X2
ANAND2X1_22 [i_add_term2_37_ i_add_term1_37_] _408_ d_lut_NAND2X1
ANAND3X1_9 [_406_ _408_ _407_] _409_ d_lut_NAND3X1
ANOR2X1_23 [i_add_term2_37_ i_add_term1_37_] _403_ d_lut_NOR2X1
AAND2X2_12 [i_add_term2_37_ i_add_term1_37_] _404_ d_lut_AND2X2
AOAI21X1_21 [_403_ _404_ _26__1_] _405_ d_lut_OAI21X1
ANAND2X1_23 [_405_ _409_] _0__37_ d_lut_NAND2X1
AOAI21X1_22 [_406_ _403_ _408_] _26__2_ d_lut_OAI21X1
AINVX1_20 [_26__2_] _413_ d_lut_INVX1
AOR2X2_10 [i_add_term2_38_ i_add_term1_38_] _414_ d_lut_OR2X2
ANAND2X1_24 [i_add_term2_38_ i_add_term1_38_] _415_ d_lut_NAND2X1
ANAND3X1_10 [_413_ _415_ _414_] _416_ d_lut_NAND3X1
ANOR2X1_24 [i_add_term2_38_ i_add_term1_38_] _410_ d_lut_NOR2X1
AAND2X2_13 [i_add_term2_38_ i_add_term1_38_] _411_ d_lut_AND2X2
AOAI21X1_23 [_410_ _411_ _26__2_] _412_ d_lut_OAI21X1
ANAND2X1_25 [_412_ _416_] _0__38_ d_lut_NAND2X1
AOAI21X1_24 [_413_ _410_ _415_] _26__3_ d_lut_OAI21X1
AINVX1_21 [i_add_term1_36_] _417_ d_lut_INVX1
ANOR2X1_25 [i_add_term2_36_ _417_] _418_ d_lut_NOR2X1
AINVX1_22 [i_add_term2_36_] _419_ d_lut_INVX1
ANOR2X1_26 [i_add_term1_36_ _419_] _420_ d_lut_NOR2X1
AINVX1_23 [i_add_term1_37_] _421_ d_lut_INVX1
ANOR2X1_27 [i_add_term2_37_ _421_] _422_ d_lut_NOR2X1
AINVX1_24 [i_add_term2_37_] _423_ d_lut_INVX1
ANOR2X1_28 [i_add_term1_37_ _423_] _424_ d_lut_NOR2X1
AOAI22X1_3 [_418_ _420_ _422_ _424_] _425_ d_lut_OAI22X1
ANOR2X1_29 [i_add_term2_39_ i_add_term1_39_] _426_ d_lut_NOR2X1
AAND2X2_14 [i_add_term2_39_ i_add_term1_39_] _427_ d_lut_AND2X2
ANOR2X1_30 [_426_ _427_] _428_ d_lut_NOR2X1
AXOR2X1_3 [i_add_term2_38_ i_add_term1_38_] _429_ d_lut_XOR2X1
ANAND2X1_26 [_428_ _429_] _430_ d_lut_NAND2X1
ANOR2X1_31 [_425_ _430_] _27_ d_lut_NOR2X1
AINVX1_25 [_25_] _431_ d_lut_INVX1
ANAND2X1_27 [gnd _27_] _432_ d_lut_NAND2X1
AOAI21X1_25 [_27_ _431_ _432_] w_cout_9_ d_lut_OAI21X1
AINVX1_26 [w_cout_9_] _436_ d_lut_INVX1
AOR2X2_11 [i_add_term2_40_ i_add_term1_40_] _437_ d_lut_OR2X2
ANAND2X1_28 [i_add_term2_40_ i_add_term1_40_] _438_ d_lut_NAND2X1
ANAND3X1_11 [_436_ _438_ _437_] _439_ d_lut_NAND3X1
ANOR2X1_32 [i_add_term2_40_ i_add_term1_40_] _433_ d_lut_NOR2X1
AAND2X2_15 [i_add_term2_40_ i_add_term1_40_] _434_ d_lut_AND2X2
AOAI21X1_26 [_433_ _434_ w_cout_9_] _435_ d_lut_OAI21X1
ANAND2X1_29 [_435_ _439_] _0__40_ d_lut_NAND2X1
AOAI21X1_27 [_436_ _433_ _438_] _29__1_ d_lut_OAI21X1
AINVX1_27 [_29__3_] _443_ d_lut_INVX1
AOR2X2_12 [i_add_term2_43_ i_add_term1_43_] _444_ d_lut_OR2X2
ANAND2X1_30 [i_add_term2_43_ i_add_term1_43_] _445_ d_lut_NAND2X1
ANAND3X1_12 [_443_ _445_ _444_] _446_ d_lut_NAND3X1
ANOR2X1_33 [i_add_term2_43_ i_add_term1_43_] _440_ d_lut_NOR2X1
AAND2X2_16 [i_add_term2_43_ i_add_term1_43_] _441_ d_lut_AND2X2
AOAI21X1_28 [_440_ _441_ _29__3_] _442_ d_lut_OAI21X1
ANAND2X1_31 [_442_ _446_] _0__43_ d_lut_NAND2X1
AOAI21X1_29 [_443_ _440_ _445_] _28_ d_lut_OAI21X1
AINVX1_28 [_29__1_] _450_ d_lut_INVX1
AOR2X2_13 [i_add_term2_41_ i_add_term1_41_] _451_ d_lut_OR2X2
ANAND2X1_32 [i_add_term2_41_ i_add_term1_41_] _452_ d_lut_NAND2X1
ANAND3X1_13 [_450_ _452_ _451_] _453_ d_lut_NAND3X1
ANOR2X1_34 [i_add_term2_41_ i_add_term1_41_] _447_ d_lut_NOR2X1
AAND2X2_17 [i_add_term2_41_ i_add_term1_41_] _448_ d_lut_AND2X2
AOAI21X1_30 [_447_ _448_ _29__1_] _449_ d_lut_OAI21X1
ANAND2X1_33 [_449_ _453_] _0__41_ d_lut_NAND2X1
AOAI21X1_31 [_450_ _447_ _452_] _29__2_ d_lut_OAI21X1
AINVX1_29 [_29__2_] _457_ d_lut_INVX1
AOR2X2_14 [i_add_term2_42_ i_add_term1_42_] _458_ d_lut_OR2X2
ANAND2X1_34 [i_add_term2_42_ i_add_term1_42_] _459_ d_lut_NAND2X1
ANAND3X1_14 [_457_ _459_ _458_] _460_ d_lut_NAND3X1
ANOR2X1_35 [i_add_term2_42_ i_add_term1_42_] _454_ d_lut_NOR2X1
AAND2X2_18 [i_add_term2_42_ i_add_term1_42_] _455_ d_lut_AND2X2
AOAI21X1_32 [_454_ _455_ _29__2_] _456_ d_lut_OAI21X1
ANAND2X1_35 [_456_ _460_] _0__42_ d_lut_NAND2X1
AOAI21X1_33 [_457_ _454_ _459_] _29__3_ d_lut_OAI21X1
AINVX1_30 [i_add_term1_40_] _461_ d_lut_INVX1
ANOR2X1_36 [i_add_term2_40_ _461_] _462_ d_lut_NOR2X1
AINVX1_31 [i_add_term2_40_] _463_ d_lut_INVX1
ANOR2X1_37 [i_add_term1_40_ _463_] _464_ d_lut_NOR2X1
AINVX1_32 [i_add_term1_41_] _465_ d_lut_INVX1
ANOR2X1_38 [i_add_term2_41_ _465_] _466_ d_lut_NOR2X1
AINVX1_33 [i_add_term2_41_] _467_ d_lut_INVX1
ANOR2X1_39 [i_add_term1_41_ _467_] _468_ d_lut_NOR2X1
AOAI22X1_4 [_462_ _464_ _466_ _468_] _469_ d_lut_OAI22X1
ANOR2X1_40 [i_add_term2_43_ i_add_term1_43_] _470_ d_lut_NOR2X1
AAND2X2_19 [i_add_term2_43_ i_add_term1_43_] _471_ d_lut_AND2X2
ANOR2X1_41 [_470_ _471_] _472_ d_lut_NOR2X1
AXOR2X1_4 [i_add_term2_42_ i_add_term1_42_] _473_ d_lut_XOR2X1
ANAND2X1_36 [_472_ _473_] _474_ d_lut_NAND2X1
ANOR2X1_42 [_469_ _474_] _30_ d_lut_NOR2X1
AINVX1_34 [_28_] _475_ d_lut_INVX1
ANAND2X1_37 [gnd _30_] _476_ d_lut_NAND2X1
AOAI21X1_34 [_30_ _475_ _476_] w_cout_10_ d_lut_OAI21X1
AINVX1_35 [w_cout_10_] _480_ d_lut_INVX1
AOR2X2_15 [i_add_term2_44_ i_add_term1_44_] _481_ d_lut_OR2X2
ANAND2X1_38 [i_add_term2_44_ i_add_term1_44_] _482_ d_lut_NAND2X1
ANAND3X1_15 [_480_ _482_ _481_] _483_ d_lut_NAND3X1
ANOR2X1_43 [i_add_term2_44_ i_add_term1_44_] _477_ d_lut_NOR2X1
AAND2X2_20 [i_add_term2_44_ i_add_term1_44_] _478_ d_lut_AND2X2
AOAI21X1_35 [_477_ _478_ w_cout_10_] _479_ d_lut_OAI21X1
ANAND2X1_39 [_479_ _483_] _0__44_ d_lut_NAND2X1
AOAI21X1_36 [_480_ _477_ _482_] _32__1_ d_lut_OAI21X1
AINVX1_36 [_32__3_] _487_ d_lut_INVX1
AOR2X2_16 [i_add_term2_47_ i_add_term1_47_] _488_ d_lut_OR2X2
ANAND2X1_40 [i_add_term2_47_ i_add_term1_47_] _489_ d_lut_NAND2X1
ANAND3X1_16 [_487_ _489_ _488_] _490_ d_lut_NAND3X1
ANOR2X1_44 [i_add_term2_47_ i_add_term1_47_] _484_ d_lut_NOR2X1
AAND2X2_21 [i_add_term2_47_ i_add_term1_47_] _485_ d_lut_AND2X2
AOAI21X1_37 [_484_ _485_ _32__3_] _486_ d_lut_OAI21X1
ANAND2X1_41 [_486_ _490_] _0__47_ d_lut_NAND2X1
AOAI21X1_38 [_487_ _484_ _489_] _31_ d_lut_OAI21X1
AINVX1_37 [_32__1_] _494_ d_lut_INVX1
AOR2X2_17 [i_add_term2_45_ i_add_term1_45_] _495_ d_lut_OR2X2
ANAND2X1_42 [i_add_term2_45_ i_add_term1_45_] _496_ d_lut_NAND2X1
ANAND3X1_17 [_494_ _496_ _495_] _497_ d_lut_NAND3X1
ANOR2X1_45 [i_add_term2_45_ i_add_term1_45_] _491_ d_lut_NOR2X1
AAND2X2_22 [i_add_term2_45_ i_add_term1_45_] _492_ d_lut_AND2X2
AOAI21X1_39 [_491_ _492_ _32__1_] _493_ d_lut_OAI21X1
ANAND2X1_43 [_493_ _497_] _0__45_ d_lut_NAND2X1
AOAI21X1_40 [_494_ _491_ _496_] _32__2_ d_lut_OAI21X1
AINVX1_38 [_32__2_] _501_ d_lut_INVX1
AOR2X2_18 [i_add_term2_46_ i_add_term1_46_] _502_ d_lut_OR2X2
ANAND2X1_44 [i_add_term2_46_ i_add_term1_46_] _503_ d_lut_NAND2X1
ANAND3X1_18 [_501_ _503_ _502_] _504_ d_lut_NAND3X1
ANOR2X1_46 [i_add_term2_46_ i_add_term1_46_] _498_ d_lut_NOR2X1
AAND2X2_23 [i_add_term2_46_ i_add_term1_46_] _499_ d_lut_AND2X2
AOAI21X1_41 [_498_ _499_ _32__2_] _500_ d_lut_OAI21X1
ANAND2X1_45 [_500_ _504_] _0__46_ d_lut_NAND2X1
AOAI21X1_42 [_501_ _498_ _503_] _32__3_ d_lut_OAI21X1
AINVX1_39 [i_add_term1_44_] _505_ d_lut_INVX1
ANOR2X1_47 [i_add_term2_44_ _505_] _506_ d_lut_NOR2X1
AINVX1_40 [i_add_term2_44_] _507_ d_lut_INVX1
ANOR2X1_48 [i_add_term1_44_ _507_] _508_ d_lut_NOR2X1
AINVX1_41 [i_add_term1_45_] _509_ d_lut_INVX1
ANOR2X1_49 [i_add_term2_45_ _509_] _510_ d_lut_NOR2X1
AINVX1_42 [i_add_term2_45_] _511_ d_lut_INVX1
ANOR2X1_50 [i_add_term1_45_ _511_] _512_ d_lut_NOR2X1
AOAI22X1_5 [_506_ _508_ _510_ _512_] _513_ d_lut_OAI22X1
ANOR2X1_51 [i_add_term2_47_ i_add_term1_47_] _514_ d_lut_NOR2X1
AAND2X2_24 [i_add_term2_47_ i_add_term1_47_] _515_ d_lut_AND2X2
ANOR2X1_52 [_514_ _515_] _516_ d_lut_NOR2X1
AXOR2X1_5 [i_add_term2_46_ i_add_term1_46_] _517_ d_lut_XOR2X1
ANAND2X1_46 [_516_ _517_] _518_ d_lut_NAND2X1
ANOR2X1_53 [_513_ _518_] _33_ d_lut_NOR2X1
AINVX1_43 [_31_] _519_ d_lut_INVX1
ANAND2X1_47 [gnd _33_] _520_ d_lut_NAND2X1
AOAI21X1_43 [_33_ _519_ _520_] w_cout_11_ d_lut_OAI21X1
AINVX1_44 [w_cout_11_] _524_ d_lut_INVX1
AOR2X2_19 [i_add_term2_48_ i_add_term1_48_] _525_ d_lut_OR2X2
ANAND2X1_48 [i_add_term2_48_ i_add_term1_48_] _526_ d_lut_NAND2X1
ANAND3X1_19 [_524_ _526_ _525_] _527_ d_lut_NAND3X1
ANOR2X1_54 [i_add_term2_48_ i_add_term1_48_] _521_ d_lut_NOR2X1
AAND2X2_25 [i_add_term2_48_ i_add_term1_48_] _522_ d_lut_AND2X2
AOAI21X1_44 [_521_ _522_ w_cout_11_] _523_ d_lut_OAI21X1
ANAND2X1_49 [_523_ _527_] _0__48_ d_lut_NAND2X1
AOAI21X1_45 [_524_ _521_ _526_] _35__1_ d_lut_OAI21X1
AINVX1_45 [_35__3_] _531_ d_lut_INVX1
AOR2X2_20 [i_add_term2_51_ i_add_term1_51_] _532_ d_lut_OR2X2
ANAND2X1_50 [i_add_term2_51_ i_add_term1_51_] _533_ d_lut_NAND2X1
ANAND3X1_20 [_531_ _533_ _532_] _534_ d_lut_NAND3X1
ANOR2X1_55 [i_add_term2_51_ i_add_term1_51_] _528_ d_lut_NOR2X1
AAND2X2_26 [i_add_term2_51_ i_add_term1_51_] _529_ d_lut_AND2X2
AOAI21X1_46 [_528_ _529_ _35__3_] _530_ d_lut_OAI21X1
ANAND2X1_51 [_530_ _534_] _0__51_ d_lut_NAND2X1
AOAI21X1_47 [_531_ _528_ _533_] _34_ d_lut_OAI21X1
AINVX1_46 [_35__1_] _538_ d_lut_INVX1
AOR2X2_21 [i_add_term2_49_ i_add_term1_49_] _539_ d_lut_OR2X2
ANAND2X1_52 [i_add_term2_49_ i_add_term1_49_] _540_ d_lut_NAND2X1
ANAND3X1_21 [_538_ _540_ _539_] _541_ d_lut_NAND3X1
ANOR2X1_56 [i_add_term2_49_ i_add_term1_49_] _535_ d_lut_NOR2X1
AAND2X2_27 [i_add_term2_49_ i_add_term1_49_] _536_ d_lut_AND2X2
AOAI21X1_48 [_535_ _536_ _35__1_] _537_ d_lut_OAI21X1
ANAND2X1_53 [_537_ _541_] _0__49_ d_lut_NAND2X1
AOAI21X1_49 [_538_ _535_ _540_] _35__2_ d_lut_OAI21X1
AINVX1_47 [_35__2_] _545_ d_lut_INVX1
AOR2X2_22 [i_add_term2_50_ i_add_term1_50_] _546_ d_lut_OR2X2
ANAND2X1_54 [i_add_term2_50_ i_add_term1_50_] _547_ d_lut_NAND2X1
ANAND3X1_22 [_545_ _547_ _546_] _548_ d_lut_NAND3X1
ANOR2X1_57 [i_add_term2_50_ i_add_term1_50_] _542_ d_lut_NOR2X1
AAND2X2_28 [i_add_term2_50_ i_add_term1_50_] _543_ d_lut_AND2X2
AOAI21X1_50 [_542_ _543_ _35__2_] _544_ d_lut_OAI21X1
ANAND2X1_55 [_544_ _548_] _0__50_ d_lut_NAND2X1
AOAI21X1_51 [_545_ _542_ _547_] _35__3_ d_lut_OAI21X1
AINVX1_48 [i_add_term1_48_] _549_ d_lut_INVX1
ANOR2X1_58 [i_add_term2_48_ _549_] _550_ d_lut_NOR2X1
AINVX1_49 [i_add_term2_48_] _551_ d_lut_INVX1
ANOR2X1_59 [i_add_term1_48_ _551_] _552_ d_lut_NOR2X1
AINVX1_50 [i_add_term1_49_] _553_ d_lut_INVX1
ANOR2X1_60 [i_add_term2_49_ _553_] _554_ d_lut_NOR2X1
AINVX1_51 [i_add_term2_49_] _555_ d_lut_INVX1
ANOR2X1_61 [i_add_term1_49_ _555_] _556_ d_lut_NOR2X1
AOAI22X1_6 [_550_ _552_ _554_ _556_] _557_ d_lut_OAI22X1
ANOR2X1_62 [i_add_term2_51_ i_add_term1_51_] _558_ d_lut_NOR2X1
AAND2X2_29 [i_add_term2_51_ i_add_term1_51_] _559_ d_lut_AND2X2
ANOR2X1_63 [_558_ _559_] _560_ d_lut_NOR2X1
AXOR2X1_6 [i_add_term2_50_ i_add_term1_50_] _561_ d_lut_XOR2X1
ANAND2X1_56 [_560_ _561_] _562_ d_lut_NAND2X1
ANOR2X1_64 [_557_ _562_] _36_ d_lut_NOR2X1
AINVX1_52 [_34_] _563_ d_lut_INVX1
ANAND2X1_57 [gnd _36_] _564_ d_lut_NAND2X1
AOAI21X1_52 [_36_ _563_ _564_] w_cout_12_ d_lut_OAI21X1
AINVX1_53 [gnd] _568_ d_lut_INVX1
AOR2X2_23 [i_add_term2_0_ i_add_term1_0_] _569_ d_lut_OR2X2
ANAND2X1_58 [i_add_term2_0_ i_add_term1_0_] _570_ d_lut_NAND2X1
ANAND3X1_23 [_568_ _570_ _569_] _571_ d_lut_NAND3X1
ANOR2X1_65 [i_add_term2_0_ i_add_term1_0_] _565_ d_lut_NOR2X1
AAND2X2_30 [i_add_term2_0_ i_add_term1_0_] _566_ d_lut_AND2X2
AOAI21X1_53 [_565_ _566_ gnd] _567_ d_lut_OAI21X1
ANAND2X1_59 [_567_ _571_] rca_inst.fa0.o_sum d_lut_NAND2X1
AOAI21X1_54 [_568_ _565_ _570_] rca_inst.fa0.o_carry d_lut_OAI21X1
AINVX1_54 [rca_inst.fa3.i_carry] _575_ d_lut_INVX1
AOR2X2_24 [i_add_term2_3_ i_add_term1_3_] _576_ d_lut_OR2X2
ANAND2X1_60 [i_add_term2_3_ i_add_term1_3_] _577_ d_lut_NAND2X1
ANAND3X1_24 [_575_ _577_ _576_] _578_ d_lut_NAND3X1
ANOR2X1_66 [i_add_term2_3_ i_add_term1_3_] _572_ d_lut_NOR2X1
AAND2X2_31 [i_add_term2_3_ i_add_term1_3_] _573_ d_lut_AND2X2
AOAI21X1_55 [_572_ _573_ rca_inst.fa3.i_carry] _574_ d_lut_OAI21X1
ANAND2X1_61 [_574_ _578_] rca_inst.fa3.o_sum d_lut_NAND2X1
AOAI21X1_56 [_575_ _572_ _577_] cout0 d_lut_OAI21X1
AINVX1_55 [rca_inst.fa0.o_carry] _582_ d_lut_INVX1
AOR2X2_25 [i_add_term2_1_ i_add_term1_1_] _583_ d_lut_OR2X2
ANAND2X1_62 [i_add_term2_1_ i_add_term1_1_] _584_ d_lut_NAND2X1
ANAND3X1_25 [_582_ _584_ _583_] _585_ d_lut_NAND3X1
ANOR2X1_67 [i_add_term2_1_ i_add_term1_1_] _579_ d_lut_NOR2X1
AAND2X2_32 [i_add_term2_1_ i_add_term1_1_] _580_ d_lut_AND2X2
AOAI21X1_57 [_579_ _580_ rca_inst.fa0.o_carry] _581_ d_lut_OAI21X1
ANAND2X1_63 [_581_ _585_] rca_inst.fa_1_.o_sum d_lut_NAND2X1
AOAI21X1_58 [_582_ _579_ _584_] rca_inst.fa_1_.o_carry d_lut_OAI21X1
AINVX1_56 [rca_inst.fa_1_.o_carry] _589_ d_lut_INVX1
AOR2X2_26 [i_add_term2_2_ i_add_term1_2_] _590_ d_lut_OR2X2
ANAND2X1_64 [i_add_term2_2_ i_add_term1_2_] _591_ d_lut_NAND2X1
ANAND3X1_26 [_589_ _591_ _590_] _592_ d_lut_NAND3X1
ANOR2X1_68 [i_add_term2_2_ i_add_term1_2_] _586_ d_lut_NOR2X1
AAND2X2_33 [i_add_term2_2_ i_add_term1_2_] _587_ d_lut_AND2X2
AOAI21X1_59 [_586_ _587_ rca_inst.fa_1_.o_carry] _588_ d_lut_OAI21X1
ANAND2X1_65 [_588_ _592_] rca_inst.fa_2_.o_sum d_lut_NAND2X1
AOAI21X1_60 [_589_ _586_ _591_] rca_inst.fa3.i_carry d_lut_OAI21X1
AINVX1_57 [i_add_term1_0_] _593_ d_lut_INVX1
ANOR2X1_69 [i_add_term2_0_ _593_] _594_ d_lut_NOR2X1
AINVX1_58 [i_add_term2_0_] _595_ d_lut_INVX1
ANOR2X1_70 [i_add_term1_0_ _595_] _596_ d_lut_NOR2X1
AINVX1_59 [i_add_term1_1_] _597_ d_lut_INVX1
ANOR2X1_71 [i_add_term2_1_ _597_] _598_ d_lut_NOR2X1
AINVX1_60 [i_add_term2_1_] _599_ d_lut_INVX1
ANOR2X1_72 [i_add_term1_1_ _599_] _600_ d_lut_NOR2X1
AOAI22X1_7 [_594_ _596_ _598_ _600_] _601_ d_lut_OAI22X1
ANOR2X1_73 [i_add_term2_3_ i_add_term1_3_] _602_ d_lut_NOR2X1
AAND2X2_34 [i_add_term2_3_ i_add_term1_3_] _603_ d_lut_AND2X2
ANOR2X1_74 [_602_ _603_] _604_ d_lut_NOR2X1
AXOR2X1_7 [i_add_term2_2_ i_add_term1_2_] _605_ d_lut_XOR2X1
ANAND2X1_66 [_604_ _605_] _606_ d_lut_NAND2X1
ANOR2X1_75 [_601_ _606_] skip0.P d_lut_NOR2X1
AINVX1_61 [cout0] _607_ d_lut_INVX1
ANAND2X1_67 [gnd skip0.P] _608_ d_lut_NAND2X1
AOAI21X1_61 [skip0.P _607_ _608_] skip0.cin_next d_lut_OAI21X1
ABUFX2_1 [w_cout_12_] cout d_lut_BUFX2
ABUFX2_2 [rca_inst.fa0.o_sum] sum_0_ d_lut_BUFX2
ABUFX2_3 [rca_inst.fa_1_.o_sum] sum_1_ d_lut_BUFX2
ABUFX2_4 [rca_inst.fa_2_.o_sum] sum_2_ d_lut_BUFX2
ABUFX2_5 [rca_inst.fa3.o_sum] sum_3_ d_lut_BUFX2
ABUFX2_6 [_0__4_] sum_4_ d_lut_BUFX2
ABUFX2_7 [_0__5_] sum_5_ d_lut_BUFX2
ABUFX2_8 [_0__6_] sum_6_ d_lut_BUFX2
ABUFX2_9 [_0__7_] sum_7_ d_lut_BUFX2
ABUFX2_10 [_0__8_] sum_8_ d_lut_BUFX2
ABUFX2_11 [_0__9_] sum_9_ d_lut_BUFX2
ABUFX2_12 [_0__10_] sum_10_ d_lut_BUFX2
ABUFX2_13 [_0__11_] sum_11_ d_lut_BUFX2
ABUFX2_14 [_0__12_] sum_12_ d_lut_BUFX2
ABUFX2_15 [_0__13_] sum_13_ d_lut_BUFX2
ABUFX2_16 [_0__14_] sum_14_ d_lut_BUFX2
ABUFX2_17 [_0__15_] sum_15_ d_lut_BUFX2
ABUFX2_18 [_0__16_] sum_16_ d_lut_BUFX2
ABUFX2_19 [_0__17_] sum_17_ d_lut_BUFX2
ABUFX2_20 [_0__18_] sum_18_ d_lut_BUFX2
ABUFX2_21 [_0__19_] sum_19_ d_lut_BUFX2
ABUFX2_22 [_0__20_] sum_20_ d_lut_BUFX2
ABUFX2_23 [_0__21_] sum_21_ d_lut_BUFX2
ABUFX2_24 [_0__22_] sum_22_ d_lut_BUFX2
ABUFX2_25 [_0__23_] sum_23_ d_lut_BUFX2
ABUFX2_26 [_0__24_] sum_24_ d_lut_BUFX2
ABUFX2_27 [_0__25_] sum_25_ d_lut_BUFX2
ABUFX2_28 [_0__26_] sum_26_ d_lut_BUFX2
ABUFX2_29 [_0__27_] sum_27_ d_lut_BUFX2
ABUFX2_30 [_0__28_] sum_28_ d_lut_BUFX2
ABUFX2_31 [_0__29_] sum_29_ d_lut_BUFX2
ABUFX2_32 [_0__30_] sum_30_ d_lut_BUFX2
ABUFX2_33 [_0__31_] sum_31_ d_lut_BUFX2
ABUFX2_34 [_0__32_] sum_32_ d_lut_BUFX2
ABUFX2_35 [_0__33_] sum_33_ d_lut_BUFX2
ABUFX2_36 [_0__34_] sum_34_ d_lut_BUFX2
ABUFX2_37 [_0__35_] sum_35_ d_lut_BUFX2
ABUFX2_38 [_0__36_] sum_36_ d_lut_BUFX2
ABUFX2_39 [_0__37_] sum_37_ d_lut_BUFX2
ABUFX2_40 [_0__38_] sum_38_ d_lut_BUFX2
ABUFX2_41 [_0__39_] sum_39_ d_lut_BUFX2
ABUFX2_42 [_0__40_] sum_40_ d_lut_BUFX2
ABUFX2_43 [_0__41_] sum_41_ d_lut_BUFX2
ABUFX2_44 [_0__42_] sum_42_ d_lut_BUFX2
ABUFX2_45 [_0__43_] sum_43_ d_lut_BUFX2
ABUFX2_46 [_0__44_] sum_44_ d_lut_BUFX2
ABUFX2_47 [_0__45_] sum_45_ d_lut_BUFX2
ABUFX2_48 [_0__46_] sum_46_ d_lut_BUFX2
ABUFX2_49 [_0__47_] sum_47_ d_lut_BUFX2
ABUFX2_50 [_0__48_] sum_48_ d_lut_BUFX2
ABUFX2_51 [_0__49_] sum_49_ d_lut_BUFX2
ABUFX2_52 [_0__50_] sum_50_ d_lut_BUFX2
ABUFX2_53 [_0__51_] sum_51_ d_lut_BUFX2
AINVX1_62 [skip0.cin_next] _40_ d_lut_INVX1
AOR2X2_27 [i_add_term2_4_ i_add_term1_4_] _41_ d_lut_OR2X2
ANAND2X1_68 [i_add_term2_4_ i_add_term1_4_] _42_ d_lut_NAND2X1
ANAND3X1_27 [_40_ _42_ _41_] _43_ d_lut_NAND3X1
ANOR2X1_76 [i_add_term2_4_ i_add_term1_4_] _37_ d_lut_NOR2X1
AAND2X2_35 [i_add_term2_4_ i_add_term1_4_] _38_ d_lut_AND2X2
AOAI21X1_62 [_37_ _38_ skip0.cin_next] _39_ d_lut_OAI21X1
ANAND2X1_69 [_39_ _43_] _0__4_ d_lut_NAND2X1
AOAI21X1_63 [_40_ _37_ _42_] _2__1_ d_lut_OAI21X1
AINVX1_63 [_2__3_] _47_ d_lut_INVX1
AOR2X2_28 [i_add_term2_7_ i_add_term1_7_] _48_ d_lut_OR2X2
ANAND2X1_70 [i_add_term2_7_ i_add_term1_7_] _49_ d_lut_NAND2X1
ANAND3X1_28 [_47_ _49_ _48_] _50_ d_lut_NAND3X1
ANOR2X1_77 [i_add_term2_7_ i_add_term1_7_] _44_ d_lut_NOR2X1
AAND2X2_36 [i_add_term2_7_ i_add_term1_7_] _45_ d_lut_AND2X2
AOAI21X1_64 [_44_ _45_ _2__3_] _46_ d_lut_OAI21X1
ANAND2X1_71 [_46_ _50_] _0__7_ d_lut_NAND2X1
AOAI21X1_65 [_47_ _44_ _49_] _1_ d_lut_OAI21X1
AINVX1_64 [_2__1_] _54_ d_lut_INVX1
AOR2X2_29 [i_add_term2_5_ i_add_term1_5_] _55_ d_lut_OR2X2
ANAND2X1_72 [i_add_term2_5_ i_add_term1_5_] _56_ d_lut_NAND2X1
ANAND3X1_29 [_54_ _56_ _55_] _57_ d_lut_NAND3X1
ANOR2X1_78 [i_add_term2_5_ i_add_term1_5_] _51_ d_lut_NOR2X1
AAND2X2_37 [i_add_term2_5_ i_add_term1_5_] _52_ d_lut_AND2X2
AOAI21X1_66 [_51_ _52_ _2__1_] _53_ d_lut_OAI21X1
ANAND2X1_73 [_53_ _57_] _0__5_ d_lut_NAND2X1
AOAI21X1_67 [_54_ _51_ _56_] _2__2_ d_lut_OAI21X1
AINVX1_65 [_2__2_] _61_ d_lut_INVX1
AOR2X2_30 [i_add_term2_6_ i_add_term1_6_] _62_ d_lut_OR2X2
ANAND2X1_74 [i_add_term2_6_ i_add_term1_6_] _63_ d_lut_NAND2X1
ANAND3X1_30 [_61_ _63_ _62_] _64_ d_lut_NAND3X1
ANOR2X1_79 [i_add_term2_6_ i_add_term1_6_] _58_ d_lut_NOR2X1
AAND2X2_38 [i_add_term2_6_ i_add_term1_6_] _59_ d_lut_AND2X2
AOAI21X1_68 [_58_ _59_ _2__2_] _60_ d_lut_OAI21X1
ANAND2X1_75 [_60_ _64_] _0__6_ d_lut_NAND2X1
AOAI21X1_69 [_61_ _58_ _63_] _2__3_ d_lut_OAI21X1
AINVX1_66 [i_add_term1_4_] _65_ d_lut_INVX1
ANOR2X1_80 [i_add_term2_4_ _65_] _66_ d_lut_NOR2X1
AINVX1_67 [i_add_term2_4_] _67_ d_lut_INVX1
ANOR2X1_81 [i_add_term1_4_ _67_] _68_ d_lut_NOR2X1
AINVX1_68 [i_add_term1_5_] _69_ d_lut_INVX1
ANOR2X1_82 [i_add_term2_5_ _69_] _70_ d_lut_NOR2X1
AINVX1_69 [i_add_term2_5_] _71_ d_lut_INVX1
ANOR2X1_83 [i_add_term1_5_ _71_] _72_ d_lut_NOR2X1
AOAI22X1_8 [_66_ _68_ _70_ _72_] _73_ d_lut_OAI22X1
ANOR2X1_84 [i_add_term2_7_ i_add_term1_7_] _74_ d_lut_NOR2X1
AAND2X2_39 [i_add_term2_7_ i_add_term1_7_] _75_ d_lut_AND2X2
ANOR2X1_85 [_74_ _75_] _76_ d_lut_NOR2X1
AXOR2X1_8 [i_add_term2_6_ i_add_term1_6_] _77_ d_lut_XOR2X1
ANAND2X1_76 [_76_ _77_] _78_ d_lut_NAND2X1
ANOR2X1_86 [_73_ _78_] _3_ d_lut_NOR2X1
AINVX1_70 [_1_] _79_ d_lut_INVX1
ANAND2X1_77 [gnd _3_] _80_ d_lut_NAND2X1
AOAI21X1_70 [_3_ _79_ _80_] w_cout_1_ d_lut_OAI21X1
AINVX1_71 [w_cout_1_] _84_ d_lut_INVX1
AOR2X2_31 [i_add_term2_8_ i_add_term1_8_] _85_ d_lut_OR2X2
ANAND2X1_78 [i_add_term2_8_ i_add_term1_8_] _86_ d_lut_NAND2X1
ANAND3X1_31 [_84_ _86_ _85_] _87_ d_lut_NAND3X1
ANOR2X1_87 [i_add_term2_8_ i_add_term1_8_] _81_ d_lut_NOR2X1
AAND2X2_40 [i_add_term2_8_ i_add_term1_8_] _82_ d_lut_AND2X2
AOAI21X1_71 [_81_ _82_ w_cout_1_] _83_ d_lut_OAI21X1
ANAND2X1_79 [_83_ _87_] _0__8_ d_lut_NAND2X1
AOAI21X1_72 [_84_ _81_ _86_] _5__1_ d_lut_OAI21X1
AINVX1_72 [_5__3_] _91_ d_lut_INVX1
AOR2X2_32 [i_add_term2_11_ i_add_term1_11_] _92_ d_lut_OR2X2
ANAND2X1_80 [i_add_term2_11_ i_add_term1_11_] _93_ d_lut_NAND2X1
ANAND3X1_32 [_91_ _93_ _92_] _94_ d_lut_NAND3X1
ANOR2X1_88 [i_add_term2_11_ i_add_term1_11_] _88_ d_lut_NOR2X1
AAND2X2_41 [i_add_term2_11_ i_add_term1_11_] _89_ d_lut_AND2X2
AOAI21X1_73 [_88_ _89_ _5__3_] _90_ d_lut_OAI21X1
ANAND2X1_81 [_90_ _94_] _0__11_ d_lut_NAND2X1
AOAI21X1_74 [_91_ _88_ _93_] _4_ d_lut_OAI21X1
AINVX1_73 [_5__1_] _98_ d_lut_INVX1
AOR2X2_33 [i_add_term2_9_ i_add_term1_9_] _99_ d_lut_OR2X2
ANAND2X1_82 [i_add_term2_9_ i_add_term1_9_] _100_ d_lut_NAND2X1
ANAND3X1_33 [_98_ _100_ _99_] _101_ d_lut_NAND3X1
ANOR2X1_89 [i_add_term2_9_ i_add_term1_9_] _95_ d_lut_NOR2X1
AAND2X2_42 [i_add_term2_9_ i_add_term1_9_] _96_ d_lut_AND2X2
AOAI21X1_75 [_95_ _96_ _5__1_] _97_ d_lut_OAI21X1
ANAND2X1_83 [_97_ _101_] _0__9_ d_lut_NAND2X1
AOAI21X1_76 [_98_ _95_ _100_] _5__2_ d_lut_OAI21X1
AINVX1_74 [_5__2_] _105_ d_lut_INVX1
AOR2X2_34 [i_add_term2_10_ i_add_term1_10_] _106_ d_lut_OR2X2
ANAND2X1_84 [i_add_term2_10_ i_add_term1_10_] _107_ d_lut_NAND2X1
ANAND3X1_34 [_105_ _107_ _106_] _108_ d_lut_NAND3X1
ANOR2X1_90 [i_add_term2_10_ i_add_term1_10_] _102_ d_lut_NOR2X1
AAND2X2_43 [i_add_term2_10_ i_add_term1_10_] _103_ d_lut_AND2X2
AOAI21X1_77 [_102_ _103_ _5__2_] _104_ d_lut_OAI21X1
ANAND2X1_85 [_104_ _108_] _0__10_ d_lut_NAND2X1
AOAI21X1_78 [_105_ _102_ _107_] _5__3_ d_lut_OAI21X1
AINVX1_75 [i_add_term1_8_] _109_ d_lut_INVX1
ANOR2X1_91 [i_add_term2_8_ _109_] _110_ d_lut_NOR2X1
AINVX1_76 [i_add_term2_8_] _111_ d_lut_INVX1
ANOR2X1_92 [i_add_term1_8_ _111_] _112_ d_lut_NOR2X1
AINVX1_77 [i_add_term1_9_] _113_ d_lut_INVX1
ANOR2X1_93 [i_add_term2_9_ _113_] _114_ d_lut_NOR2X1
AINVX1_78 [i_add_term2_9_] _115_ d_lut_INVX1
ANOR2X1_94 [i_add_term1_9_ _115_] _116_ d_lut_NOR2X1
AOAI22X1_9 [_110_ _112_ _114_ _116_] _117_ d_lut_OAI22X1
ANOR2X1_95 [i_add_term2_11_ i_add_term1_11_] _118_ d_lut_NOR2X1
AAND2X2_44 [i_add_term2_11_ i_add_term1_11_] _119_ d_lut_AND2X2
ANOR2X1_96 [_118_ _119_] _120_ d_lut_NOR2X1
AXOR2X1_9 [i_add_term2_10_ i_add_term1_10_] _121_ d_lut_XOR2X1
ANAND2X1_86 [_120_ _121_] _122_ d_lut_NAND2X1
ANOR2X1_97 [_117_ _122_] _6_ d_lut_NOR2X1
AINVX1_79 [_4_] _123_ d_lut_INVX1
ANAND2X1_87 [gnd _6_] _124_ d_lut_NAND2X1