* XSpice netlist created from SPICE and liberty sources by spi2xspice.py
*SPICE netlist created from BLIF module CSkipA_64bit by blif2BSpice
.subckt CSkipA_64bit a_vdd a_gnd a_i_add_term1_0_ a_i_add_term1_1_ a_i_add_term1_2_ a_i_add_term1_3_ a_i_add_term1_4_ a_i_add_term1_5_ a_i_add_term1_6_ a_i_add_term1_7_ a_i_add_term1_8_ a_i_add_term1_9_ a_i_add_term1_10_ a_i_add_term1_11_ a_i_add_term1_12_ a_i_add_term1_13_ a_i_add_term1_14_ a_i_add_term1_15_ a_i_add_term1_16_ a_i_add_term1_17_ a_i_add_term1_18_ a_i_add_term1_19_ a_i_add_term1_20_ a_i_add_term1_21_ a_i_add_term1_22_ a_i_add_term1_23_ a_i_add_term1_24_ a_i_add_term1_25_ a_i_add_term1_26_ a_i_add_term1_27_ a_i_add_term1_28_ a_i_add_term1_29_ a_i_add_term1_30_ a_i_add_term1_31_ a_i_add_term1_32_ a_i_add_term1_33_ a_i_add_term1_34_ a_i_add_term1_35_ a_i_add_term1_36_ a_i_add_term1_37_ a_i_add_term1_38_ a_i_add_term1_39_ a_i_add_term1_40_ a_i_add_term1_41_ a_i_add_term1_42_ a_i_add_term1_43_ a_i_add_term1_44_ a_i_add_term1_45_ a_i_add_term1_46_ a_i_add_term1_47_ a_i_add_term1_48_ a_i_add_term1_49_ a_i_add_term1_50_ a_i_add_term1_51_ a_i_add_term1_52_ a_i_add_term1_53_ a_i_add_term1_54_ a_i_add_term1_55_ a_i_add_term1_56_ a_i_add_term1_57_ a_i_add_term1_58_ a_i_add_term1_59_ a_i_add_term1_60_ a_i_add_term1_61_ a_i_add_term1_62_ a_i_add_term1_63_ a_i_add_term2_0_ a_i_add_term2_1_ a_i_add_term2_2_ a_i_add_term2_3_ a_i_add_term2_4_ a_i_add_term2_5_ a_i_add_term2_6_ a_i_add_term2_7_ a_i_add_term2_8_ a_i_add_term2_9_ a_i_add_term2_10_ a_i_add_term2_11_ a_i_add_term2_12_ a_i_add_term2_13_ a_i_add_term2_14_ a_i_add_term2_15_ a_i_add_term2_16_ a_i_add_term2_17_ a_i_add_term2_18_ a_i_add_term2_19_ a_i_add_term2_20_ a_i_add_term2_21_ a_i_add_term2_22_ a_i_add_term2_23_ a_i_add_term2_24_ a_i_add_term2_25_ a_i_add_term2_26_ a_i_add_term2_27_ a_i_add_term2_28_ a_i_add_term2_29_ a_i_add_term2_30_ a_i_add_term2_31_ a_i_add_term2_32_ a_i_add_term2_33_ a_i_add_term2_34_ a_i_add_term2_35_ a_i_add_term2_36_ a_i_add_term2_37_ a_i_add_term2_38_ a_i_add_term2_39_ a_i_add_term2_40_ a_i_add_term2_41_ a_i_add_term2_42_ a_i_add_term2_43_ a_i_add_term2_44_ a_i_add_term2_45_ a_i_add_term2_46_ a_i_add_term2_47_ a_i_add_term2_48_ a_i_add_term2_49_ a_i_add_term2_50_ a_i_add_term2_51_ a_i_add_term2_52_ a_i_add_term2_53_ a_i_add_term2_54_ a_i_add_term2_55_ a_i_add_term2_56_ a_i_add_term2_57_ a_i_add_term2_58_ a_i_add_term2_59_ a_i_add_term2_60_ a_i_add_term2_61_ a_i_add_term2_62_ a_i_add_term2_63_ a_sum_0_ a_sum_1_ a_sum_2_ a_sum_3_ a_sum_4_ a_sum_5_ a_sum_6_ a_sum_7_ a_sum_8_ a_sum_9_ a_sum_10_ a_sum_11_ a_sum_12_ a_sum_13_ a_sum_14_ a_sum_15_ a_sum_16_ a_sum_17_ a_sum_18_ a_sum_19_ a_sum_20_ a_sum_21_ a_sum_22_ a_sum_23_ a_sum_24_ a_sum_25_ a_sum_26_ a_sum_27_ a_sum_28_ a_sum_29_ a_sum_30_ a_sum_31_ a_sum_32_ a_sum_33_ a_sum_34_ a_sum_35_ a_sum_36_ a_sum_37_ a_sum_38_ a_sum_39_ a_sum_40_ a_sum_41_ a_sum_42_ a_sum_43_ a_sum_44_ a_sum_45_ a_sum_46_ a_sum_47_ a_sum_48_ a_sum_49_ a_sum_50_ a_sum_51_ a_sum_52_ a_sum_53_ a_sum_54_ a_sum_55_ a_sum_56_ a_sum_57_ a_sum_58_ a_sum_59_ a_sum_60_ a_sum_61_ a_sum_62_ a_sum_63_ a_cout
ANAND3X1_1 [_196_ _197_ _192_] _193_ d_lut_NAND3X1
AAND2X2_1 [i_add_term2_17_ i_add_term1_17_] _194_ d_lut_AND2X2
AOAI21X1_1 [_198_ _194_ _11__1_] _195_ d_lut_OAI21X1
ANAND2X1_1 [_195_ _193_] _0__17_ d_lut_NAND2X1
AINVX1_1 [_11__2_] _203_ d_lut_INVX1
ANAND2X1_2 [i_add_term2_18_ i_add_term1_18_] _204_ d_lut_NAND2X1
ANOR2X1_1 [i_add_term2_18_ i_add_term1_18_] _205_ d_lut_NOR2X1
AOAI21X1_2 [_203_ _205_ _204_] _11__3_ d_lut_OAI21X1
AOR2X2_1 [i_add_term2_18_ i_add_term1_18_] _199_ d_lut_OR2X2
ANAND3X1_2 [_203_ _204_ _199_] _200_ d_lut_NAND3X1
AAND2X2_2 [i_add_term2_18_ i_add_term1_18_] _201_ d_lut_AND2X2
AOAI21X1_3 [_205_ _201_ _11__2_] _202_ d_lut_OAI21X1
ANAND2X1_3 [_202_ _200_] _0__18_ d_lut_NAND2X1
AINVX1_2 [i_add_term1_16_] _206_ d_lut_INVX1
ANOR2X1_2 [i_add_term2_16_ _206_] _207_ d_lut_NOR2X1
AINVX1_3 [i_add_term2_16_] _208_ d_lut_INVX1
ANOR2X1_3 [i_add_term1_16_ _208_] _209_ d_lut_NOR2X1
AINVX1_4 [i_add_term1_17_] _210_ d_lut_INVX1
ANOR2X1_4 [i_add_term2_17_ _210_] _211_ d_lut_NOR2X1
AINVX1_5 [i_add_term2_17_] _212_ d_lut_INVX1
ANOR2X1_5 [i_add_term1_17_ _212_] _213_ d_lut_NOR2X1
AOAI22X1_1 [_207_ _209_ _211_ _213_] _214_ d_lut_OAI22X1
ANOR2X1_6 [i_add_term2_19_ i_add_term1_19_] _215_ d_lut_NOR2X1
AAND2X2_3 [i_add_term2_19_ i_add_term1_19_] _216_ d_lut_AND2X2
ANOR2X1_7 [_215_ _216_] _217_ d_lut_NOR2X1
AXOR2X1_1 [i_add_term2_18_ i_add_term1_18_] _218_ d_lut_XOR2X1
ANAND2X1_4 [_217_ _218_] _219_ d_lut_NAND2X1
ANOR2X1_8 [_214_ _219_] _12_ d_lut_NOR2X1
AINVX1_6 [_10_] _220_ d_lut_INVX1
ANAND2X1_5 [gnd _12_] _221_ d_lut_NAND2X1
AOAI21X1_4 [_12_ _220_ _221_] w_cout_4_ d_lut_OAI21X1
AINVX1_7 [w_cout_4_] _226_ d_lut_INVX1
ANAND2X1_6 [i_add_term2_20_ i_add_term1_20_] _227_ d_lut_NAND2X1
ANOR2X1_9 [i_add_term2_20_ i_add_term1_20_] _228_ d_lut_NOR2X1
AOAI21X1_5 [_226_ _228_ _227_] _14__1_ d_lut_OAI21X1
AOR2X2_2 [i_add_term2_20_ i_add_term1_20_] _222_ d_lut_OR2X2
ANAND3X1_3 [_226_ _227_ _222_] _223_ d_lut_NAND3X1
AAND2X2_4 [i_add_term2_20_ i_add_term1_20_] _224_ d_lut_AND2X2
AOAI21X1_6 [_228_ _224_ w_cout_4_] _225_ d_lut_OAI21X1
ANAND2X1_7 [_225_ _223_] _0__20_ d_lut_NAND2X1
AINVX1_8 [_14__3_] _233_ d_lut_INVX1
ANAND2X1_8 [i_add_term2_23_ i_add_term1_23_] _234_ d_lut_NAND2X1
ANOR2X1_10 [i_add_term2_23_ i_add_term1_23_] _235_ d_lut_NOR2X1
AOAI21X1_7 [_233_ _235_ _234_] _13_ d_lut_OAI21X1
AOR2X2_3 [i_add_term2_23_ i_add_term1_23_] _229_ d_lut_OR2X2
ANAND3X1_4 [_233_ _234_ _229_] _230_ d_lut_NAND3X1
AAND2X2_5 [i_add_term2_23_ i_add_term1_23_] _231_ d_lut_AND2X2
AOAI21X1_8 [_235_ _231_ _14__3_] _232_ d_lut_OAI21X1
ANAND2X1_9 [_232_ _230_] _0__23_ d_lut_NAND2X1
AINVX1_9 [_14__1_] _240_ d_lut_INVX1
ANAND2X1_10 [i_add_term2_21_ i_add_term1_21_] _241_ d_lut_NAND2X1
ANOR2X1_11 [i_add_term2_21_ i_add_term1_21_] _242_ d_lut_NOR2X1
AOAI21X1_9 [_240_ _242_ _241_] _14__2_ d_lut_OAI21X1
AOR2X2_4 [i_add_term2_21_ i_add_term1_21_] _236_ d_lut_OR2X2
ANAND3X1_5 [_240_ _241_ _236_] _237_ d_lut_NAND3X1
AAND2X2_6 [i_add_term2_21_ i_add_term1_21_] _238_ d_lut_AND2X2
AOAI21X1_10 [_242_ _238_ _14__1_] _239_ d_lut_OAI21X1
ANAND2X1_11 [_239_ _237_] _0__21_ d_lut_NAND2X1
AINVX1_10 [_14__2_] _247_ d_lut_INVX1
ANAND2X1_12 [i_add_term2_22_ i_add_term1_22_] _248_ d_lut_NAND2X1
ANOR2X1_12 [i_add_term2_22_ i_add_term1_22_] _249_ d_lut_NOR2X1
AOAI21X1_11 [_247_ _249_ _248_] _14__3_ d_lut_OAI21X1
AOR2X2_5 [i_add_term2_22_ i_add_term1_22_] _243_ d_lut_OR2X2
ANAND3X1_6 [_247_ _248_ _243_] _244_ d_lut_NAND3X1
AAND2X2_7 [i_add_term2_22_ i_add_term1_22_] _245_ d_lut_AND2X2
AOAI21X1_12 [_249_ _245_ _14__2_] _246_ d_lut_OAI21X1
ANAND2X1_13 [_246_ _244_] _0__22_ d_lut_NAND2X1
AINVX1_11 [i_add_term1_20_] _250_ d_lut_INVX1
ANOR2X1_13 [i_add_term2_20_ _250_] _251_ d_lut_NOR2X1
AINVX1_12 [i_add_term2_20_] _252_ d_lut_INVX1
ANOR2X1_14 [i_add_term1_20_ _252_] _253_ d_lut_NOR2X1
AINVX1_13 [i_add_term1_21_] _254_ d_lut_INVX1
ANOR2X1_15 [i_add_term2_21_ _254_] _255_ d_lut_NOR2X1
AINVX1_14 [i_add_term2_21_] _256_ d_lut_INVX1
ANOR2X1_16 [i_add_term1_21_ _256_] _257_ d_lut_NOR2X1
AOAI22X1_2 [_251_ _253_ _255_ _257_] _258_ d_lut_OAI22X1
ANOR2X1_17 [i_add_term2_23_ i_add_term1_23_] _259_ d_lut_NOR2X1
AAND2X2_8 [i_add_term2_23_ i_add_term1_23_] _260_ d_lut_AND2X2
ANOR2X1_18 [_259_ _260_] _261_ d_lut_NOR2X1
AXOR2X1_2 [i_add_term2_22_ i_add_term1_22_] _262_ d_lut_XOR2X1
ANAND2X1_14 [_261_ _262_] _263_ d_lut_NAND2X1
ANOR2X1_19 [_258_ _263_] _15_ d_lut_NOR2X1
AINVX1_15 [_13_] _264_ d_lut_INVX1
ANAND2X1_15 [gnd _15_] _265_ d_lut_NAND2X1
AOAI21X1_13 [_15_ _264_ _265_] w_cout_5_ d_lut_OAI21X1
AINVX1_16 [w_cout_5_] _270_ d_lut_INVX1
ANAND2X1_16 [i_add_term2_24_ i_add_term1_24_] _271_ d_lut_NAND2X1
ANOR2X1_20 [i_add_term2_24_ i_add_term1_24_] _272_ d_lut_NOR2X1
AOAI21X1_14 [_270_ _272_ _271_] _17__1_ d_lut_OAI21X1
AOR2X2_6 [i_add_term2_24_ i_add_term1_24_] _266_ d_lut_OR2X2
ANAND3X1_7 [_270_ _271_ _266_] _267_ d_lut_NAND3X1
AAND2X2_9 [i_add_term2_24_ i_add_term1_24_] _268_ d_lut_AND2X2
AOAI21X1_15 [_272_ _268_ w_cout_5_] _269_ d_lut_OAI21X1
ANAND2X1_17 [_269_ _267_] _0__24_ d_lut_NAND2X1
AINVX1_17 [_17__3_] _277_ d_lut_INVX1
ANAND2X1_18 [i_add_term2_27_ i_add_term1_27_] _278_ d_lut_NAND2X1
ANOR2X1_21 [i_add_term2_27_ i_add_term1_27_] _279_ d_lut_NOR2X1
AOAI21X1_16 [_277_ _279_ _278_] _16_ d_lut_OAI21X1
AOR2X2_7 [i_add_term2_27_ i_add_term1_27_] _273_ d_lut_OR2X2
ANAND3X1_8 [_277_ _278_ _273_] _274_ d_lut_NAND3X1
AAND2X2_10 [i_add_term2_27_ i_add_term1_27_] _275_ d_lut_AND2X2
AOAI21X1_17 [_279_ _275_ _17__3_] _276_ d_lut_OAI21X1
ANAND2X1_19 [_276_ _274_] _0__27_ d_lut_NAND2X1
AINVX1_18 [_17__1_] _284_ d_lut_INVX1
ANAND2X1_20 [i_add_term2_25_ i_add_term1_25_] _285_ d_lut_NAND2X1
ANOR2X1_22 [i_add_term2_25_ i_add_term1_25_] _286_ d_lut_NOR2X1
AOAI21X1_18 [_284_ _286_ _285_] _17__2_ d_lut_OAI21X1
AOR2X2_8 [i_add_term2_25_ i_add_term1_25_] _280_ d_lut_OR2X2
ANAND3X1_9 [_284_ _285_ _280_] _281_ d_lut_NAND3X1
AAND2X2_11 [i_add_term2_25_ i_add_term1_25_] _282_ d_lut_AND2X2
AOAI21X1_19 [_286_ _282_ _17__1_] _283_ d_lut_OAI21X1
ANAND2X1_21 [_283_ _281_] _0__25_ d_lut_NAND2X1
AINVX1_19 [_17__2_] _291_ d_lut_INVX1
ANAND2X1_22 [i_add_term2_26_ i_add_term1_26_] _292_ d_lut_NAND2X1
ANOR2X1_23 [i_add_term2_26_ i_add_term1_26_] _293_ d_lut_NOR2X1
AOAI21X1_20 [_291_ _293_ _292_] _17__3_ d_lut_OAI21X1
AOR2X2_9 [i_add_term2_26_ i_add_term1_26_] _287_ d_lut_OR2X2
ANAND3X1_10 [_291_ _292_ _287_] _288_ d_lut_NAND3X1
AAND2X2_12 [i_add_term2_26_ i_add_term1_26_] _289_ d_lut_AND2X2
AOAI21X1_21 [_293_ _289_ _17__2_] _290_ d_lut_OAI21X1
ANAND2X1_23 [_290_ _288_] _0__26_ d_lut_NAND2X1
AINVX1_20 [i_add_term1_24_] _294_ d_lut_INVX1
ANOR2X1_24 [i_add_term2_24_ _294_] _295_ d_lut_NOR2X1
AINVX1_21 [i_add_term2_24_] _296_ d_lut_INVX1
ANOR2X1_25 [i_add_term1_24_ _296_] _297_ d_lut_NOR2X1
AINVX1_22 [i_add_term1_25_] _298_ d_lut_INVX1
ANOR2X1_26 [i_add_term2_25_ _298_] _299_ d_lut_NOR2X1
AINVX1_23 [i_add_term2_25_] _300_ d_lut_INVX1
ANOR2X1_27 [i_add_term1_25_ _300_] _301_ d_lut_NOR2X1
AOAI22X1_3 [_295_ _297_ _299_ _301_] _302_ d_lut_OAI22X1
ANOR2X1_28 [i_add_term2_27_ i_add_term1_27_] _303_ d_lut_NOR2X1
AAND2X2_13 [i_add_term2_27_ i_add_term1_27_] _304_ d_lut_AND2X2
ANOR2X1_29 [_303_ _304_] _305_ d_lut_NOR2X1
AXOR2X1_3 [i_add_term2_26_ i_add_term1_26_] _306_ d_lut_XOR2X1
ANAND2X1_24 [_305_ _306_] _307_ d_lut_NAND2X1
ANOR2X1_30 [_302_ _307_] _18_ d_lut_NOR2X1
AINVX1_24 [_16_] _308_ d_lut_INVX1
ANAND2X1_25 [gnd _18_] _309_ d_lut_NAND2X1
AOAI21X1_22 [_18_ _308_ _309_] w_cout_6_ d_lut_OAI21X1
AINVX1_25 [w_cout_6_] _314_ d_lut_INVX1
ANAND2X1_26 [i_add_term2_28_ i_add_term1_28_] _315_ d_lut_NAND2X1
ANOR2X1_31 [i_add_term2_28_ i_add_term1_28_] _316_ d_lut_NOR2X1
AOAI21X1_23 [_314_ _316_ _315_] _20__1_ d_lut_OAI21X1
AOR2X2_10 [i_add_term2_28_ i_add_term1_28_] _310_ d_lut_OR2X2
ANAND3X1_11 [_314_ _315_ _310_] _311_ d_lut_NAND3X1
AAND2X2_14 [i_add_term2_28_ i_add_term1_28_] _312_ d_lut_AND2X2
AOAI21X1_24 [_316_ _312_ w_cout_6_] _313_ d_lut_OAI21X1
ANAND2X1_27 [_313_ _311_] _0__28_ d_lut_NAND2X1
AINVX1_26 [_20__3_] _321_ d_lut_INVX1
ANAND2X1_28 [i_add_term2_31_ i_add_term1_31_] _322_ d_lut_NAND2X1
ANOR2X1_32 [i_add_term2_31_ i_add_term1_31_] _323_ d_lut_NOR2X1
AOAI21X1_25 [_321_ _323_ _322_] _19_ d_lut_OAI21X1
AOR2X2_11 [i_add_term2_31_ i_add_term1_31_] _317_ d_lut_OR2X2
ANAND3X1_12 [_321_ _322_ _317_] _318_ d_lut_NAND3X1
AAND2X2_15 [i_add_term2_31_ i_add_term1_31_] _319_ d_lut_AND2X2
AOAI21X1_26 [_323_ _319_ _20__3_] _320_ d_lut_OAI21X1
ANAND2X1_29 [_320_ _318_] _0__31_ d_lut_NAND2X1
AINVX1_27 [_20__1_] _328_ d_lut_INVX1
ANAND2X1_30 [i_add_term2_29_ i_add_term1_29_] _329_ d_lut_NAND2X1
ANOR2X1_33 [i_add_term2_29_ i_add_term1_29_] _330_ d_lut_NOR2X1
AOAI21X1_27 [_328_ _330_ _329_] _20__2_ d_lut_OAI21X1
AOR2X2_12 [i_add_term2_29_ i_add_term1_29_] _324_ d_lut_OR2X2
ANAND3X1_13 [_328_ _329_ _324_] _325_ d_lut_NAND3X1
AAND2X2_16 [i_add_term2_29_ i_add_term1_29_] _326_ d_lut_AND2X2
AOAI21X1_28 [_330_ _326_ _20__1_] _327_ d_lut_OAI21X1
ANAND2X1_31 [_327_ _325_] _0__29_ d_lut_NAND2X1
AINVX1_28 [_20__2_] _335_ d_lut_INVX1
ANAND2X1_32 [i_add_term2_30_ i_add_term1_30_] _336_ d_lut_NAND2X1
ANOR2X1_34 [i_add_term2_30_ i_add_term1_30_] _337_ d_lut_NOR2X1
AOAI21X1_29 [_335_ _337_ _336_] _20__3_ d_lut_OAI21X1
AOR2X2_13 [i_add_term2_30_ i_add_term1_30_] _331_ d_lut_OR2X2
ANAND3X1_14 [_335_ _336_ _331_] _332_ d_lut_NAND3X1
AAND2X2_17 [i_add_term2_30_ i_add_term1_30_] _333_ d_lut_AND2X2
AOAI21X1_30 [_337_ _333_ _20__2_] _334_ d_lut_OAI21X1
ANAND2X1_33 [_334_ _332_] _0__30_ d_lut_NAND2X1
AINVX1_29 [i_add_term1_28_] _338_ d_lut_INVX1
ANOR2X1_35 [i_add_term2_28_ _338_] _339_ d_lut_NOR2X1
AINVX1_30 [i_add_term2_28_] _340_ d_lut_INVX1
ANOR2X1_36 [i_add_term1_28_ _340_] _341_ d_lut_NOR2X1
AINVX1_31 [i_add_term1_29_] _342_ d_lut_INVX1
ANOR2X1_37 [i_add_term2_29_ _342_] _343_ d_lut_NOR2X1
AINVX1_32 [i_add_term2_29_] _344_ d_lut_INVX1
ANOR2X1_38 [i_add_term1_29_ _344_] _345_ d_lut_NOR2X1
AOAI22X1_4 [_339_ _341_ _343_ _345_] _346_ d_lut_OAI22X1
ANOR2X1_39 [i_add_term2_31_ i_add_term1_31_] _347_ d_lut_NOR2X1
AAND2X2_18 [i_add_term2_31_ i_add_term1_31_] _348_ d_lut_AND2X2
ANOR2X1_40 [_347_ _348_] _349_ d_lut_NOR2X1
AXOR2X1_4 [i_add_term2_30_ i_add_term1_30_] _350_ d_lut_XOR2X1
ANAND2X1_34 [_349_ _350_] _351_ d_lut_NAND2X1
ANOR2X1_41 [_346_ _351_] _21_ d_lut_NOR2X1
AINVX1_33 [_19_] _352_ d_lut_INVX1
ANAND2X1_35 [gnd _21_] _353_ d_lut_NAND2X1
AOAI21X1_31 [_21_ _352_ _353_] w_cout_7_ d_lut_OAI21X1
AINVX1_34 [w_cout_7_] _358_ d_lut_INVX1
ANAND2X1_36 [i_add_term2_32_ i_add_term1_32_] _359_ d_lut_NAND2X1
ANOR2X1_42 [i_add_term2_32_ i_add_term1_32_] _360_ d_lut_NOR2X1
AOAI21X1_32 [_358_ _360_ _359_] _23__1_ d_lut_OAI21X1
AOR2X2_14 [i_add_term2_32_ i_add_term1_32_] _354_ d_lut_OR2X2
ANAND3X1_15 [_358_ _359_ _354_] _355_ d_lut_NAND3X1
AAND2X2_19 [i_add_term2_32_ i_add_term1_32_] _356_ d_lut_AND2X2
AOAI21X1_33 [_360_ _356_ w_cout_7_] _357_ d_lut_OAI21X1
ANAND2X1_37 [_357_ _355_] _0__32_ d_lut_NAND2X1
AINVX1_35 [_23__3_] _365_ d_lut_INVX1
ANAND2X1_38 [i_add_term2_35_ i_add_term1_35_] _366_ d_lut_NAND2X1
ANOR2X1_43 [i_add_term2_35_ i_add_term1_35_] _367_ d_lut_NOR2X1
AOAI21X1_34 [_365_ _367_ _366_] _22_ d_lut_OAI21X1
AOR2X2_15 [i_add_term2_35_ i_add_term1_35_] _361_ d_lut_OR2X2
ANAND3X1_16 [_365_ _366_ _361_] _362_ d_lut_NAND3X1
AAND2X2_20 [i_add_term2_35_ i_add_term1_35_] _363_ d_lut_AND2X2
AOAI21X1_35 [_367_ _363_ _23__3_] _364_ d_lut_OAI21X1
ANAND2X1_39 [_364_ _362_] _0__35_ d_lut_NAND2X1
AINVX1_36 [_23__1_] _372_ d_lut_INVX1
ANAND2X1_40 [i_add_term2_33_ i_add_term1_33_] _373_ d_lut_NAND2X1
ANOR2X1_44 [i_add_term2_33_ i_add_term1_33_] _374_ d_lut_NOR2X1
AOAI21X1_36 [_372_ _374_ _373_] _23__2_ d_lut_OAI21X1
AOR2X2_16 [i_add_term2_33_ i_add_term1_33_] _368_ d_lut_OR2X2
ANAND3X1_17 [_372_ _373_ _368_] _369_ d_lut_NAND3X1
AAND2X2_21 [i_add_term2_33_ i_add_term1_33_] _370_ d_lut_AND2X2
AOAI21X1_37 [_374_ _370_ _23__1_] _371_ d_lut_OAI21X1
ANAND2X1_41 [_371_ _369_] _0__33_ d_lut_NAND2X1
AINVX1_37 [_23__2_] _379_ d_lut_INVX1
ANAND2X1_42 [i_add_term2_34_ i_add_term1_34_] _380_ d_lut_NAND2X1
ANOR2X1_45 [i_add_term2_34_ i_add_term1_34_] _381_ d_lut_NOR2X1
AOAI21X1_38 [_379_ _381_ _380_] _23__3_ d_lut_OAI21X1
AOR2X2_17 [i_add_term2_34_ i_add_term1_34_] _375_ d_lut_OR2X2
ANAND3X1_18 [_379_ _380_ _375_] _376_ d_lut_NAND3X1
AAND2X2_22 [i_add_term2_34_ i_add_term1_34_] _377_ d_lut_AND2X2
AOAI21X1_39 [_381_ _377_ _23__2_] _378_ d_lut_OAI21X1
ANAND2X1_43 [_378_ _376_] _0__34_ d_lut_NAND2X1
AINVX1_38 [i_add_term1_32_] _382_ d_lut_INVX1
ANOR2X1_46 [i_add_term2_32_ _382_] _383_ d_lut_NOR2X1
AINVX1_39 [i_add_term2_32_] _384_ d_lut_INVX1
ANOR2X1_47 [i_add_term1_32_ _384_] _385_ d_lut_NOR2X1
AINVX1_40 [i_add_term1_33_] _386_ d_lut_INVX1
ANOR2X1_48 [i_add_term2_33_ _386_] _387_ d_lut_NOR2X1
AINVX1_41 [i_add_term2_33_] _388_ d_lut_INVX1
ANOR2X1_49 [i_add_term1_33_ _388_] _389_ d_lut_NOR2X1
AOAI22X1_5 [_383_ _385_ _387_ _389_] _390_ d_lut_OAI22X1
ANOR2X1_50 [i_add_term2_35_ i_add_term1_35_] _391_ d_lut_NOR2X1
AAND2X2_23 [i_add_term2_35_ i_add_term1_35_] _392_ d_lut_AND2X2
ANOR2X1_51 [_391_ _392_] _393_ d_lut_NOR2X1
AXOR2X1_5 [i_add_term2_34_ i_add_term1_34_] _394_ d_lut_XOR2X1
ANAND2X1_44 [_393_ _394_] _395_ d_lut_NAND2X1
ANOR2X1_52 [_390_ _395_] _24_ d_lut_NOR2X1
AINVX1_42 [_22_] _396_ d_lut_INVX1
ANAND2X1_45 [gnd _24_] _397_ d_lut_NAND2X1
AOAI21X1_40 [_24_ _396_ _397_] w_cout_8_ d_lut_OAI21X1
AINVX1_43 [w_cout_8_] _402_ d_lut_INVX1
ANAND2X1_46 [i_add_term2_36_ i_add_term1_36_] _403_ d_lut_NAND2X1
ANOR2X1_53 [i_add_term2_36_ i_add_term1_36_] _404_ d_lut_NOR2X1
AOAI21X1_41 [_402_ _404_ _403_] _26__1_ d_lut_OAI21X1
AOR2X2_18 [i_add_term2_36_ i_add_term1_36_] _398_ d_lut_OR2X2
ANAND3X1_19 [_402_ _403_ _398_] _399_ d_lut_NAND3X1
AAND2X2_24 [i_add_term2_36_ i_add_term1_36_] _400_ d_lut_AND2X2
AOAI21X1_42 [_404_ _400_ w_cout_8_] _401_ d_lut_OAI21X1
ANAND2X1_47 [_401_ _399_] _0__36_ d_lut_NAND2X1
AINVX1_44 [_26__3_] _409_ d_lut_INVX1
ANAND2X1_48 [i_add_term2_39_ i_add_term1_39_] _410_ d_lut_NAND2X1
ANOR2X1_54 [i_add_term2_39_ i_add_term1_39_] _411_ d_lut_NOR2X1
AOAI21X1_43 [_409_ _411_ _410_] _25_ d_lut_OAI21X1
AOR2X2_19 [i_add_term2_39_ i_add_term1_39_] _405_ d_lut_OR2X2
ANAND3X1_20 [_409_ _410_ _405_] _406_ d_lut_NAND3X1
AAND2X2_25 [i_add_term2_39_ i_add_term1_39_] _407_ d_lut_AND2X2
AOAI21X1_44 [_411_ _407_ _26__3_] _408_ d_lut_OAI21X1
ANAND2X1_49 [_408_ _406_] _0__39_ d_lut_NAND2X1
AINVX1_45 [_26__1_] _416_ d_lut_INVX1
ANAND2X1_50 [i_add_term2_37_ i_add_term1_37_] _417_ d_lut_NAND2X1
ANOR2X1_55 [i_add_term2_37_ i_add_term1_37_] _418_ d_lut_NOR2X1
AOAI21X1_45 [_416_ _418_ _417_] _26__2_ d_lut_OAI21X1
AOR2X2_20 [i_add_term2_37_ i_add_term1_37_] _412_ d_lut_OR2X2
ANAND3X1_21 [_416_ _417_ _412_] _413_ d_lut_NAND3X1
AAND2X2_26 [i_add_term2_37_ i_add_term1_37_] _414_ d_lut_AND2X2
AOAI21X1_46 [_418_ _414_ _26__1_] _415_ d_lut_OAI21X1
ANAND2X1_51 [_415_ _413_] _0__37_ d_lut_NAND2X1
AINVX1_46 [_26__2_] _423_ d_lut_INVX1
ANAND2X1_52 [i_add_term2_38_ i_add_term1_38_] _424_ d_lut_NAND2X1
ANOR2X1_56 [i_add_term2_38_ i_add_term1_38_] _425_ d_lut_NOR2X1
AOAI21X1_47 [_423_ _425_ _424_] _26__3_ d_lut_OAI21X1
AOR2X2_21 [i_add_term2_38_ i_add_term1_38_] _419_ d_lut_OR2X2
ANAND3X1_22 [_423_ _424_ _419_] _420_ d_lut_NAND3X1
AAND2X2_27 [i_add_term2_38_ i_add_term1_38_] _421_ d_lut_AND2X2
AOAI21X1_48 [_425_ _421_ _26__2_] _422_ d_lut_OAI21X1
ANAND2X1_53 [_422_ _420_] _0__38_ d_lut_NAND2X1
AINVX1_47 [i_add_term1_36_] _426_ d_lut_INVX1
ANOR2X1_57 [i_add_term2_36_ _426_] _427_ d_lut_NOR2X1
AINVX1_48 [i_add_term2_36_] _428_ d_lut_INVX1
ANOR2X1_58 [i_add_term1_36_ _428_] _429_ d_lut_NOR2X1
AINVX1_49 [i_add_term1_37_] _430_ d_lut_INVX1
ANOR2X1_59 [i_add_term2_37_ _430_] _431_ d_lut_NOR2X1
AINVX1_50 [i_add_term2_37_] _432_ d_lut_INVX1
ANOR2X1_60 [i_add_term1_37_ _432_] _433_ d_lut_NOR2X1
AOAI22X1_6 [_427_ _429_ _431_ _433_] _434_ d_lut_OAI22X1
ANOR2X1_61 [i_add_term2_39_ i_add_term1_39_] _435_ d_lut_NOR2X1
AAND2X2_28 [i_add_term2_39_ i_add_term1_39_] _436_ d_lut_AND2X2
ANOR2X1_62 [_435_ _436_] _437_ d_lut_NOR2X1
AXOR2X1_6 [i_add_term2_38_ i_add_term1_38_] _438_ d_lut_XOR2X1
ANAND2X1_54 [_437_ _438_] _439_ d_lut_NAND2X1
ANOR2X1_63 [_434_ _439_] _27_ d_lut_NOR2X1
AINVX1_51 [_25_] _440_ d_lut_INVX1
ANAND2X1_55 [gnd _27_] _441_ d_lut_NAND2X1
AOAI21X1_49 [_27_ _440_ _441_] w_cout_9_ d_lut_OAI21X1
AINVX1_52 [w_cout_9_] _446_ d_lut_INVX1
ANAND2X1_56 [i_add_term2_40_ i_add_term1_40_] _447_ d_lut_NAND2X1
ANOR2X1_64 [i_add_term2_40_ i_add_term1_40_] _448_ d_lut_NOR2X1
AOAI21X1_50 [_446_ _448_ _447_] _29__1_ d_lut_OAI21X1
AOR2X2_22 [i_add_term2_40_ i_add_term1_40_] _442_ d_lut_OR2X2
ANAND3X1_23 [_446_ _447_ _442_] _443_ d_lut_NAND3X1
AAND2X2_29 [i_add_term2_40_ i_add_term1_40_] _444_ d_lut_AND2X2
AOAI21X1_51 [_448_ _444_ w_cout_9_] _445_ d_lut_OAI21X1
ANAND2X1_57 [_445_ _443_] _0__40_ d_lut_NAND2X1
AINVX1_53 [_29__3_] _453_ d_lut_INVX1
ANAND2X1_58 [i_add_term2_43_ i_add_term1_43_] _454_ d_lut_NAND2X1
ANOR2X1_65 [i_add_term2_43_ i_add_term1_43_] _455_ d_lut_NOR2X1
AOAI21X1_52 [_453_ _455_ _454_] _28_ d_lut_OAI21X1
AOR2X2_23 [i_add_term2_43_ i_add_term1_43_] _449_ d_lut_OR2X2
ANAND3X1_24 [_453_ _454_ _449_] _450_ d_lut_NAND3X1
AAND2X2_30 [i_add_term2_43_ i_add_term1_43_] _451_ d_lut_AND2X2
AOAI21X1_53 [_455_ _451_ _29__3_] _452_ d_lut_OAI21X1
ANAND2X1_59 [_452_ _450_] _0__43_ d_lut_NAND2X1
AINVX1_54 [_29__1_] _460_ d_lut_INVX1
ANAND2X1_60 [i_add_term2_41_ i_add_term1_41_] _461_ d_lut_NAND2X1
ANOR2X1_66 [i_add_term2_41_ i_add_term1_41_] _462_ d_lut_NOR2X1
AOAI21X1_54 [_460_ _462_ _461_] _29__2_ d_lut_OAI21X1
AOR2X2_24 [i_add_term2_41_ i_add_term1_41_] _456_ d_lut_OR2X2
ANAND3X1_25 [_460_ _461_ _456_] _457_ d_lut_NAND3X1
AAND2X2_31 [i_add_term2_41_ i_add_term1_41_] _458_ d_lut_AND2X2
AOAI21X1_55 [_462_ _458_ _29__1_] _459_ d_lut_OAI21X1
ANAND2X1_61 [_459_ _457_] _0__41_ d_lut_NAND2X1
AINVX1_55 [_29__2_] _467_ d_lut_INVX1
ANAND2X1_62 [i_add_term2_42_ i_add_term1_42_] _468_ d_lut_NAND2X1
ANOR2X1_67 [i_add_term2_42_ i_add_term1_42_] _469_ d_lut_NOR2X1
AOAI21X1_56 [_467_ _469_ _468_] _29__3_ d_lut_OAI21X1
AOR2X2_25 [i_add_term2_42_ i_add_term1_42_] _463_ d_lut_OR2X2
ANAND3X1_26 [_467_ _468_ _463_] _464_ d_lut_NAND3X1
AAND2X2_32 [i_add_term2_42_ i_add_term1_42_] _465_ d_lut_AND2X2
AOAI21X1_57 [_469_ _465_ _29__2_] _466_ d_lut_OAI21X1
ANAND2X1_63 [_466_ _464_] _0__42_ d_lut_NAND2X1
AINVX1_56 [i_add_term1_40_] _470_ d_lut_INVX1
ANOR2X1_68 [i_add_term2_40_ _470_] _471_ d_lut_NOR2X1
AINVX1_57 [i_add_term2_40_] _472_ d_lut_INVX1
ANOR2X1_69 [i_add_term1_40_ _472_] _473_ d_lut_NOR2X1
AINVX1_58 [i_add_term1_41_] _474_ d_lut_INVX1
ANOR2X1_70 [i_add_term2_41_ _474_] _475_ d_lut_NOR2X1
AINVX1_59 [i_add_term2_41_] _476_ d_lut_INVX1
ANOR2X1_71 [i_add_term1_41_ _476_] _477_ d_lut_NOR2X1
AOAI22X1_7 [_471_ _473_ _475_ _477_] _478_ d_lut_OAI22X1
ANOR2X1_72 [i_add_term2_43_ i_add_term1_43_] _479_ d_lut_NOR2X1
AAND2X2_33 [i_add_term2_43_ i_add_term1_43_] _480_ d_lut_AND2X2
ANOR2X1_73 [_479_ _480_] _481_ d_lut_NOR2X1
AXOR2X1_7 [i_add_term2_42_ i_add_term1_42_] _482_ d_lut_XOR2X1
ANAND2X1_64 [_481_ _482_] _483_ d_lut_NAND2X1
ANOR2X1_74 [_478_ _483_] _30_ d_lut_NOR2X1
AINVX1_60 [_28_] _484_ d_lut_INVX1
ANAND2X1_65 [gnd _30_] _485_ d_lut_NAND2X1
AOAI21X1_58 [_30_ _484_ _485_] w_cout_10_ d_lut_OAI21X1
AINVX1_61 [w_cout_10_] _490_ d_lut_INVX1
ANAND2X1_66 [i_add_term2_44_ i_add_term1_44_] _491_ d_lut_NAND2X1
ANOR2X1_75 [i_add_term2_44_ i_add_term1_44_] _492_ d_lut_NOR2X1
AOAI21X1_59 [_490_ _492_ _491_] _32__1_ d_lut_OAI21X1
AOR2X2_26 [i_add_term2_44_ i_add_term1_44_] _486_ d_lut_OR2X2
ANAND3X1_27 [_490_ _491_ _486_] _487_ d_lut_NAND3X1
AAND2X2_34 [i_add_term2_44_ i_add_term1_44_] _488_ d_lut_AND2X2
AOAI21X1_60 [_492_ _488_ w_cout_10_] _489_ d_lut_OAI21X1
ANAND2X1_67 [_489_ _487_] _0__44_ d_lut_NAND2X1
AINVX1_62 [_32__3_] _497_ d_lut_INVX1
ANAND2X1_68 [i_add_term2_47_ i_add_term1_47_] _498_ d_lut_NAND2X1
ANOR2X1_76 [i_add_term2_47_ i_add_term1_47_] _499_ d_lut_NOR2X1
AOAI21X1_61 [_497_ _499_ _498_] _31_ d_lut_OAI21X1
AOR2X2_27 [i_add_term2_47_ i_add_term1_47_] _493_ d_lut_OR2X2
ANAND3X1_28 [_497_ _498_ _493_] _494_ d_lut_NAND3X1
AAND2X2_35 [i_add_term2_47_ i_add_term1_47_] _495_ d_lut_AND2X2
AOAI21X1_62 [_499_ _495_ _32__3_] _496_ d_lut_OAI21X1
ANAND2X1_69 [_496_ _494_] _0__47_ d_lut_NAND2X1
AINVX1_63 [_32__1_] _504_ d_lut_INVX1
ANAND2X1_70 [i_add_term2_45_ i_add_term1_45_] _505_ d_lut_NAND2X1
ANOR2X1_77 [i_add_term2_45_ i_add_term1_45_] _506_ d_lut_NOR2X1
AOAI21X1_63 [_504_ _506_ _505_] _32__2_ d_lut_OAI21X1
AOR2X2_28 [i_add_term2_45_ i_add_term1_45_] _500_ d_lut_OR2X2
ANAND3X1_29 [_504_ _505_ _500_] _501_ d_lut_NAND3X1
AAND2X2_36 [i_add_term2_45_ i_add_term1_45_] _502_ d_lut_AND2X2
AOAI21X1_64 [_506_ _502_ _32__1_] _503_ d_lut_OAI21X1
ANAND2X1_71 [_503_ _501_] _0__45_ d_lut_NAND2X1
AINVX1_64 [_32__2_] _511_ d_lut_INVX1
ANAND2X1_72 [i_add_term2_46_ i_add_term1_46_] _512_ d_lut_NAND2X1
ANOR2X1_78 [i_add_term2_46_ i_add_term1_46_] _513_ d_lut_NOR2X1
AOAI21X1_65 [_511_ _513_ _512_] _32__3_ d_lut_OAI21X1
AOR2X2_29 [i_add_term2_46_ i_add_term1_46_] _507_ d_lut_OR2X2
ANAND3X1_30 [_511_ _512_ _507_] _508_ d_lut_NAND3X1
AAND2X2_37 [i_add_term2_46_ i_add_term1_46_] _509_ d_lut_AND2X2
AOAI21X1_66 [_513_ _509_ _32__2_] _510_ d_lut_OAI21X1
ANAND2X1_73 [_510_ _508_] _0__46_ d_lut_NAND2X1
AINVX1_65 [i_add_term1_44_] _514_ d_lut_INVX1
ANOR2X1_79 [i_add_term2_44_ _514_] _515_ d_lut_NOR2X1
AINVX1_66 [i_add_term2_44_] _516_ d_lut_INVX1
ANOR2X1_80 [i_add_term1_44_ _516_] _517_ d_lut_NOR2X1
AINVX1_67 [i_add_term1_45_] _518_ d_lut_INVX1
ANOR2X1_81 [i_add_term2_45_ _518_] _519_ d_lut_NOR2X1
AINVX1_68 [i_add_term2_45_] _520_ d_lut_INVX1
ANOR2X1_82 [i_add_term1_45_ _520_] _521_ d_lut_NOR2X1
AOAI22X1_8 [_515_ _517_ _519_ _521_] _522_ d_lut_OAI22X1
ANOR2X1_83 [i_add_term2_47_ i_add_term1_47_] _523_ d_lut_NOR2X1
AAND2X2_38 [i_add_term2_47_ i_add_term1_47_] _524_ d_lut_AND2X2
ANOR2X1_84 [_523_ _524_] _525_ d_lut_NOR2X1
AXOR2X1_8 [i_add_term2_46_ i_add_term1_46_] _526_ d_lut_XOR2X1
ANAND2X1_74 [_525_ _526_] _527_ d_lut_NAND2X1
ANOR2X1_85 [_522_ _527_] _33_ d_lut_NOR2X1
AINVX1_69 [_31_] _528_ d_lut_INVX1
ANAND2X1_75 [gnd _33_] _529_ d_lut_NAND2X1
AOAI21X1_67 [_33_ _528_ _529_] w_cout_11_ d_lut_OAI21X1
AINVX1_70 [w_cout_11_] _534_ d_lut_INVX1
ANAND2X1_76 [i_add_term2_48_ i_add_term1_48_] _535_ d_lut_NAND2X1
ANOR2X1_86 [i_add_term2_48_ i_add_term1_48_] _536_ d_lut_NOR2X1
AOAI21X1_68 [_534_ _536_ _535_] _35__1_ d_lut_OAI21X1
AOR2X2_30 [i_add_term2_48_ i_add_term1_48_] _530_ d_lut_OR2X2
ANAND3X1_31 [_534_ _535_ _530_] _531_ d_lut_NAND3X1
AAND2X2_39 [i_add_term2_48_ i_add_term1_48_] _532_ d_lut_AND2X2
AOAI21X1_69 [_536_ _532_ w_cout_11_] _533_ d_lut_OAI21X1
ANAND2X1_77 [_533_ _531_] _0__48_ d_lut_NAND2X1
AINVX1_71 [_35__3_] _541_ d_lut_INVX1
ANAND2X1_78 [i_add_term2_51_ i_add_term1_51_] _542_ d_lut_NAND2X1
ANOR2X1_87 [i_add_term2_51_ i_add_term1_51_] _543_ d_lut_NOR2X1
AOAI21X1_70 [_541_ _543_ _542_] _34_ d_lut_OAI21X1
AOR2X2_31 [i_add_term2_51_ i_add_term1_51_] _537_ d_lut_OR2X2
ANAND3X1_32 [_541_ _542_ _537_] _538_ d_lut_NAND3X1
AAND2X2_40 [i_add_term2_51_ i_add_term1_51_] _539_ d_lut_AND2X2
AOAI21X1_71 [_543_ _539_ _35__3_] _540_ d_lut_OAI21X1
ANAND2X1_79 [_540_ _538_] _0__51_ d_lut_NAND2X1
AINVX1_72 [_35__1_] _548_ d_lut_INVX1
ANAND2X1_80 [i_add_term2_49_ i_add_term1_49_] _549_ d_lut_NAND2X1
ANOR2X1_88 [i_add_term2_49_ i_add_term1_49_] _550_ d_lut_NOR2X1
AOAI21X1_72 [_548_ _550_ _549_] _35__2_ d_lut_OAI21X1
AOR2X2_32 [i_add_term2_49_ i_add_term1_49_] _544_ d_lut_OR2X2
ANAND3X1_33 [_548_ _549_ _544_] _545_ d_lut_NAND3X1
AAND2X2_41 [i_add_term2_49_ i_add_term1_49_] _546_ d_lut_AND2X2
AOAI21X1_73 [_550_ _546_ _35__1_] _547_ d_lut_OAI21X1
ANAND2X1_81 [_547_ _545_] _0__49_ d_lut_NAND2X1
AINVX1_73 [_35__2_] _555_ d_lut_INVX1
ANAND2X1_82 [i_add_term2_50_ i_add_term1_50_] _556_ d_lut_NAND2X1
ANOR2X1_89 [i_add_term2_50_ i_add_term1_50_] _557_ d_lut_NOR2X1
AOAI21X1_74 [_555_ _557_ _556_] _35__3_ d_lut_OAI21X1
AOR2X2_33 [i_add_term2_50_ i_add_term1_50_] _551_ d_lut_OR2X2
ANAND3X1_34 [_555_ _556_ _551_] _552_ d_lut_NAND3X1
AAND2X2_42 [i_add_term2_50_ i_add_term1_50_] _553_ d_lut_AND2X2
AOAI21X1_75 [_557_ _553_ _35__2_] _554_ d_lut_OAI21X1
ANAND2X1_83 [_554_ _552_] _0__50_ d_lut_NAND2X1
AINVX1_74 [i_add_term1_48_] _558_ d_lut_INVX1
ANOR2X1_90 [i_add_term2_48_ _558_] _559_ d_lut_NOR2X1
AINVX1_75 [i_add_term2_48_] _560_ d_lut_INVX1
ANOR2X1_91 [i_add_term1_48_ _560_] _561_ d_lut_NOR2X1
AINVX1_76 [i_add_term1_49_] _562_ d_lut_INVX1
ANOR2X1_92 [i_add_term2_49_ _562_] _563_ d_lut_NOR2X1
AINVX1_77 [i_add_term2_49_] _564_ d_lut_INVX1
ANOR2X1_93 [i_add_term1_49_ _564_] _565_ d_lut_NOR2X1
AOAI22X1_9 [_559_ _561_ _563_ _565_] _566_ d_lut_OAI22X1
ANOR2X1_94 [i_add_term2_51_ i_add_term1_51_] _567_ d_lut_NOR2X1
AAND2X2_43 [i_add_term2_51_ i_add_term1_51_] _568_ d_lut_AND2X2
ANOR2X1_95 [_567_ _568_] _569_ d_lut_NOR2X1
AXOR2X1_9 [i_add_term2_50_ i_add_term1_50_] _570_ d_lut_XOR2X1
ANAND2X1_84 [_569_ _570_] _571_ d_lut_NAND2X1
ANOR2X1_96 [_566_ _571_] _36_ d_lut_NOR2X1
AINVX1_78 [_34_] _572_ d_lut_INVX1
ANAND2X1_85 [gnd _36_] _573_ d_lut_NAND2X1
AOAI21X1_76 [_36_ _572_ _573_] w_cout_12_ d_lut_OAI21X1
AINVX1_79 [w_cout_12_] _578_ d_lut_INVX1
ANAND2X1_86 [i_add_term2_52_ i_add_term1_52_] _579_ d_lut_NAND2X1
ANOR2X1_97 [i_add_term2_52_ i_add_term1_52_] _580_ d_lut_NOR2X1
AOAI21X1_77 [_578_ _580_ _579_] _38__1_ d_lut_OAI21X1
AOR2X2_34 [i_add_term2_52_ i_add_term1_52_] _574_ d_lut_OR2X2
ANAND3X1_35 [_578_ _579_ _574_] _575_ d_lut_NAND3X1
AAND2X2_44 [i_add_term2_52_ i_add_term1_52_] _576_ d_lut_AND2X2
AOAI21X1_78 [_580_ _576_ w_cout_12_] _577_ d_lut_OAI21X1
ANAND2X1_87 [_577_ _575_] _0__52_ d_lut_NAND2X1
AINVX1_80 [_38__3_] _585_ d_lut_INVX1
ANAND2X1_88 [i_add_term2_55_ i_add_term1_55_] _586_ d_lut_NAND2X1
ANOR2X1_98 [i_add_term2_55_ i_add_term1_55_] _587_ d_lut_NOR2X1
AOAI21X1_79 [_585_ _587_ _586_] _37_ d_lut_OAI21X1
AOR2X2_35 [i_add_term2_55_ i_add_term1_55_] _581_ d_lut_OR2X2
ANAND3X1_36 [_585_ _586_ _581_] _582_ d_lut_NAND3X1
AAND2X2_45 [i_add_term2_55_ i_add_term1_55_] _583_ d_lut_AND2X2
AOAI21X1_80 [_587_ _583_ _38__3_] _584_ d_lut_OAI21X1
ANAND2X1_89 [_584_ _582_] _0__55_ d_lut_NAND2X1
AINVX1_81 [_38__1_] _592_ d_lut_INVX1
ANAND2X1_90 [i_add_term2_53_ i_add_term1_53_] _593_ d_lut_NAND2X1
ANOR2X1_99 [i_add_term2_53_ i_add_term1_53_] _594_ d_lut_NOR2X1
AOAI21X1_81 [_592_ _594_ _593_] _38__2_ d_lut_OAI21X1
AOR2X2_36 [i_add_term2_53_ i_add_term1_53_] _588_ d_lut_OR2X2
ANAND3X1_37 [_592_ _593_ _588_] _589_ d_lut_NAND3X1
AAND2X2_46 [i_add_term2_53_ i_add_term1_53_] _590_ d_lut_AND2X2
AOAI21X1_82 [_594_ _590_ _38__1_] _591_ d_lut_OAI21X1
ANAND2X1_91 [_591_ _589_] _0__53_ d_lut_NAND2X1
AINVX1_82 [_38__2_] _599_ d_lut_INVX1
ANAND2X1_92 [i_add_term2_54_ i_add_term1_54_] _600_ d_lut_NAND2X1
ANOR2X1_100 [i_add_term2_54_ i_add_term1_54_] _601_ d_lut_NOR2X1
AOAI21X1_83 [_599_ _601_ _600_] _38__3_ d_lut_OAI21X1
AOR2X2_37 [i_add_term2_54_ i_add_term1_54_] _595_ d_lut_OR2X2
ANAND3X1_38 [_599_ _600_ _595_] _596_ d_lut_NAND3X1
AAND2X2_47 [i_add_term2_54_ i_add_term1_54_] _597_ d_lut_AND2X2