* XSpice netlist created from SPICE and liberty sources by spi2xspice.py
*SPICE netlist created from BLIF module CSkipA_60bit by blif2BSpice
.subckt CSkipA_60bit a_vdd a_gnd a_i_add_term1_0_ a_i_add_term1_1_ a_i_add_term1_2_ a_i_add_term1_3_ a_i_add_term1_4_ a_i_add_term1_5_ a_i_add_term1_6_ a_i_add_term1_7_ a_i_add_term1_8_ a_i_add_term1_9_ a_i_add_term1_10_ a_i_add_term1_11_ a_i_add_term1_12_ a_i_add_term1_13_ a_i_add_term1_14_ a_i_add_term1_15_ a_i_add_term1_16_ a_i_add_term1_17_ a_i_add_term1_18_ a_i_add_term1_19_ a_i_add_term1_20_ a_i_add_term1_21_ a_i_add_term1_22_ a_i_add_term1_23_ a_i_add_term1_24_ a_i_add_term1_25_ a_i_add_term1_26_ a_i_add_term1_27_ a_i_add_term1_28_ a_i_add_term1_29_ a_i_add_term1_30_ a_i_add_term1_31_ a_i_add_term1_32_ a_i_add_term1_33_ a_i_add_term1_34_ a_i_add_term1_35_ a_i_add_term1_36_ a_i_add_term1_37_ a_i_add_term1_38_ a_i_add_term1_39_ a_i_add_term1_40_ a_i_add_term1_41_ a_i_add_term1_42_ a_i_add_term1_43_ a_i_add_term1_44_ a_i_add_term1_45_ a_i_add_term1_46_ a_i_add_term1_47_ a_i_add_term1_48_ a_i_add_term1_49_ a_i_add_term1_50_ a_i_add_term1_51_ a_i_add_term1_52_ a_i_add_term1_53_ a_i_add_term1_54_ a_i_add_term1_55_ a_i_add_term1_56_ a_i_add_term1_57_ a_i_add_term1_58_ a_i_add_term1_59_ a_i_add_term2_0_ a_i_add_term2_1_ a_i_add_term2_2_ a_i_add_term2_3_ a_i_add_term2_4_ a_i_add_term2_5_ a_i_add_term2_6_ a_i_add_term2_7_ a_i_add_term2_8_ a_i_add_term2_9_ a_i_add_term2_10_ a_i_add_term2_11_ a_i_add_term2_12_ a_i_add_term2_13_ a_i_add_term2_14_ a_i_add_term2_15_ a_i_add_term2_16_ a_i_add_term2_17_ a_i_add_term2_18_ a_i_add_term2_19_ a_i_add_term2_20_ a_i_add_term2_21_ a_i_add_term2_22_ a_i_add_term2_23_ a_i_add_term2_24_ a_i_add_term2_25_ a_i_add_term2_26_ a_i_add_term2_27_ a_i_add_term2_28_ a_i_add_term2_29_ a_i_add_term2_30_ a_i_add_term2_31_ a_i_add_term2_32_ a_i_add_term2_33_ a_i_add_term2_34_ a_i_add_term2_35_ a_i_add_term2_36_ a_i_add_term2_37_ a_i_add_term2_38_ a_i_add_term2_39_ a_i_add_term2_40_ a_i_add_term2_41_ a_i_add_term2_42_ a_i_add_term2_43_ a_i_add_term2_44_ a_i_add_term2_45_ a_i_add_term2_46_ a_i_add_term2_47_ a_i_add_term2_48_ a_i_add_term2_49_ a_i_add_term2_50_ a_i_add_term2_51_ a_i_add_term2_52_ a_i_add_term2_53_ a_i_add_term2_54_ a_i_add_term2_55_ a_i_add_term2_56_ a_i_add_term2_57_ a_i_add_term2_58_ a_i_add_term2_59_ a_sum_0_ a_sum_1_ a_sum_2_ a_sum_3_ a_sum_4_ a_sum_5_ a_sum_6_ a_sum_7_ a_sum_8_ a_sum_9_ a_sum_10_ a_sum_11_ a_sum_12_ a_sum_13_ a_sum_14_ a_sum_15_ a_sum_16_ a_sum_17_ a_sum_18_ a_sum_19_ a_sum_20_ a_sum_21_ a_sum_22_ a_sum_23_ a_sum_24_ a_sum_25_ a_sum_26_ a_sum_27_ a_sum_28_ a_sum_29_ a_sum_30_ a_sum_31_ a_sum_32_ a_sum_33_ a_sum_34_ a_sum_35_ a_sum_36_ a_sum_37_ a_sum_38_ a_sum_39_ a_sum_40_ a_sum_41_ a_sum_42_ a_sum_43_ a_sum_44_ a_sum_45_ a_sum_46_ a_sum_47_ a_sum_48_ a_sum_49_ a_sum_50_ a_sum_51_ a_sum_52_ a_sum_53_ a_sum_54_ a_sum_55_ a_sum_56_ a_sum_57_ a_sum_58_ a_sum_59_ a_cout
ANAND2X1_1 [i_add_term2_21_ i_add_term1_21_] _238_ d_lut_NAND2X1
ANAND3X1_1 [_236_ _238_ _237_] _239_ d_lut_NAND3X1
ANOR2X1_1 [i_add_term2_21_ i_add_term1_21_] _233_ d_lut_NOR2X1
AAND2X2_1 [i_add_term2_21_ i_add_term1_21_] _234_ d_lut_AND2X2
AOAI21X1_1 [_233_ _234_ _14__1_] _235_ d_lut_OAI21X1
ANAND2X1_2 [_235_ _239_] _0__21_ d_lut_NAND2X1
AOAI21X1_2 [_236_ _233_ _238_] _14__2_ d_lut_OAI21X1
AINVX1_1 [_14__2_] _243_ d_lut_INVX1
AOR2X2_1 [i_add_term2_22_ i_add_term1_22_] _244_ d_lut_OR2X2
ANAND2X1_3 [i_add_term2_22_ i_add_term1_22_] _245_ d_lut_NAND2X1
ANAND3X1_2 [_243_ _245_ _244_] _246_ d_lut_NAND3X1
ANOR2X1_2 [i_add_term2_22_ i_add_term1_22_] _240_ d_lut_NOR2X1
AAND2X2_2 [i_add_term2_22_ i_add_term1_22_] _241_ d_lut_AND2X2
AOAI21X1_3 [_240_ _241_ _14__2_] _242_ d_lut_OAI21X1
ANAND2X1_4 [_242_ _246_] _0__22_ d_lut_NAND2X1
AOAI21X1_4 [_243_ _240_ _245_] _14__3_ d_lut_OAI21X1
AINVX1_2 [i_add_term1_20_] _247_ d_lut_INVX1
ANOR2X1_3 [i_add_term2_20_ _247_] _248_ d_lut_NOR2X1
AINVX1_3 [i_add_term2_20_] _249_ d_lut_INVX1
ANOR2X1_4 [i_add_term1_20_ _249_] _250_ d_lut_NOR2X1
AINVX1_4 [i_add_term1_21_] _251_ d_lut_INVX1
ANOR2X1_5 [i_add_term2_21_ _251_] _252_ d_lut_NOR2X1
AINVX1_5 [i_add_term2_21_] _253_ d_lut_INVX1
ANOR2X1_6 [i_add_term1_21_ _253_] _254_ d_lut_NOR2X1
AOAI22X1_1 [_248_ _250_ _252_ _254_] _255_ d_lut_OAI22X1
ANOR2X1_7 [i_add_term2_23_ i_add_term1_23_] _256_ d_lut_NOR2X1
AAND2X2_3 [i_add_term2_23_ i_add_term1_23_] _257_ d_lut_AND2X2
ANOR2X1_8 [_256_ _257_] _258_ d_lut_NOR2X1
AXOR2X1_1 [i_add_term2_22_ i_add_term1_22_] _259_ d_lut_XOR2X1
ANAND2X1_5 [_258_ _259_] _260_ d_lut_NAND2X1
ANOR2X1_9 [_255_ _260_] _15_ d_lut_NOR2X1
AINVX1_6 [_13_] _261_ d_lut_INVX1
ANAND2X1_6 [gnd _15_] _262_ d_lut_NAND2X1
AOAI21X1_5 [_15_ _261_ _262_] w_cout_5_ d_lut_OAI21X1
AINVX1_7 [w_cout_5_] _266_ d_lut_INVX1
AOR2X2_2 [i_add_term2_24_ i_add_term1_24_] _267_ d_lut_OR2X2
ANAND2X1_7 [i_add_term2_24_ i_add_term1_24_] _268_ d_lut_NAND2X1
ANAND3X1_3 [_266_ _268_ _267_] _269_ d_lut_NAND3X1
ANOR2X1_10 [i_add_term2_24_ i_add_term1_24_] _263_ d_lut_NOR2X1
AAND2X2_4 [i_add_term2_24_ i_add_term1_24_] _264_ d_lut_AND2X2
AOAI21X1_6 [_263_ _264_ w_cout_5_] _265_ d_lut_OAI21X1
ANAND2X1_8 [_265_ _269_] _0__24_ d_lut_NAND2X1
AOAI21X1_7 [_266_ _263_ _268_] _17__1_ d_lut_OAI21X1
AINVX1_8 [_17__3_] _273_ d_lut_INVX1
AOR2X2_3 [i_add_term2_27_ i_add_term1_27_] _274_ d_lut_OR2X2
ANAND2X1_9 [i_add_term2_27_ i_add_term1_27_] _275_ d_lut_NAND2X1
ANAND3X1_4 [_273_ _275_ _274_] _276_ d_lut_NAND3X1
ANOR2X1_11 [i_add_term2_27_ i_add_term1_27_] _270_ d_lut_NOR2X1
AAND2X2_5 [i_add_term2_27_ i_add_term1_27_] _271_ d_lut_AND2X2
AOAI21X1_8 [_270_ _271_ _17__3_] _272_ d_lut_OAI21X1
ANAND2X1_10 [_272_ _276_] _0__27_ d_lut_NAND2X1
AOAI21X1_9 [_273_ _270_ _275_] _16_ d_lut_OAI21X1
AINVX1_9 [_17__1_] _280_ d_lut_INVX1
AOR2X2_4 [i_add_term2_25_ i_add_term1_25_] _281_ d_lut_OR2X2
ANAND2X1_11 [i_add_term2_25_ i_add_term1_25_] _282_ d_lut_NAND2X1
ANAND3X1_5 [_280_ _282_ _281_] _283_ d_lut_NAND3X1
ANOR2X1_12 [i_add_term2_25_ i_add_term1_25_] _277_ d_lut_NOR2X1
AAND2X2_6 [i_add_term2_25_ i_add_term1_25_] _278_ d_lut_AND2X2
AOAI21X1_10 [_277_ _278_ _17__1_] _279_ d_lut_OAI21X1
ANAND2X1_12 [_279_ _283_] _0__25_ d_lut_NAND2X1
AOAI21X1_11 [_280_ _277_ _282_] _17__2_ d_lut_OAI21X1
AINVX1_10 [_17__2_] _287_ d_lut_INVX1
AOR2X2_5 [i_add_term2_26_ i_add_term1_26_] _288_ d_lut_OR2X2
ANAND2X1_13 [i_add_term2_26_ i_add_term1_26_] _289_ d_lut_NAND2X1
ANAND3X1_6 [_287_ _289_ _288_] _290_ d_lut_NAND3X1
ANOR2X1_13 [i_add_term2_26_ i_add_term1_26_] _284_ d_lut_NOR2X1
AAND2X2_7 [i_add_term2_26_ i_add_term1_26_] _285_ d_lut_AND2X2
AOAI21X1_12 [_284_ _285_ _17__2_] _286_ d_lut_OAI21X1
ANAND2X1_14 [_286_ _290_] _0__26_ d_lut_NAND2X1
AOAI21X1_13 [_287_ _284_ _289_] _17__3_ d_lut_OAI21X1
AINVX1_11 [i_add_term1_24_] _291_ d_lut_INVX1
ANOR2X1_14 [i_add_term2_24_ _291_] _292_ d_lut_NOR2X1
AINVX1_12 [i_add_term2_24_] _293_ d_lut_INVX1
ANOR2X1_15 [i_add_term1_24_ _293_] _294_ d_lut_NOR2X1
AINVX1_13 [i_add_term1_25_] _295_ d_lut_INVX1
ANOR2X1_16 [i_add_term2_25_ _295_] _296_ d_lut_NOR2X1
AINVX1_14 [i_add_term2_25_] _297_ d_lut_INVX1
ANOR2X1_17 [i_add_term1_25_ _297_] _298_ d_lut_NOR2X1
AOAI22X1_2 [_292_ _294_ _296_ _298_] _299_ d_lut_OAI22X1
ANOR2X1_18 [i_add_term2_27_ i_add_term1_27_] _300_ d_lut_NOR2X1
AAND2X2_8 [i_add_term2_27_ i_add_term1_27_] _301_ d_lut_AND2X2
ANOR2X1_19 [_300_ _301_] _302_ d_lut_NOR2X1
AXOR2X1_2 [i_add_term2_26_ i_add_term1_26_] _303_ d_lut_XOR2X1
ANAND2X1_15 [_302_ _303_] _304_ d_lut_NAND2X1
ANOR2X1_20 [_299_ _304_] _18_ d_lut_NOR2X1
AINVX1_15 [_16_] _305_ d_lut_INVX1
ANAND2X1_16 [gnd _18_] _306_ d_lut_NAND2X1
AOAI21X1_14 [_18_ _305_ _306_] w_cout_6_ d_lut_OAI21X1
AINVX1_16 [w_cout_6_] _310_ d_lut_INVX1
AOR2X2_6 [i_add_term2_28_ i_add_term1_28_] _311_ d_lut_OR2X2
ANAND2X1_17 [i_add_term2_28_ i_add_term1_28_] _312_ d_lut_NAND2X1
ANAND3X1_7 [_310_ _312_ _311_] _313_ d_lut_NAND3X1
ANOR2X1_21 [i_add_term2_28_ i_add_term1_28_] _307_ d_lut_NOR2X1
AAND2X2_9 [i_add_term2_28_ i_add_term1_28_] _308_ d_lut_AND2X2
AOAI21X1_15 [_307_ _308_ w_cout_6_] _309_ d_lut_OAI21X1
ANAND2X1_18 [_309_ _313_] _0__28_ d_lut_NAND2X1
AOAI21X1_16 [_310_ _307_ _312_] _20__1_ d_lut_OAI21X1
AINVX1_17 [_20__3_] _317_ d_lut_INVX1
AOR2X2_7 [i_add_term2_31_ i_add_term1_31_] _318_ d_lut_OR2X2
ANAND2X1_19 [i_add_term2_31_ i_add_term1_31_] _319_ d_lut_NAND2X1
ANAND3X1_8 [_317_ _319_ _318_] _320_ d_lut_NAND3X1
ANOR2X1_22 [i_add_term2_31_ i_add_term1_31_] _314_ d_lut_NOR2X1
AAND2X2_10 [i_add_term2_31_ i_add_term1_31_] _315_ d_lut_AND2X2
AOAI21X1_17 [_314_ _315_ _20__3_] _316_ d_lut_OAI21X1
ANAND2X1_20 [_316_ _320_] _0__31_ d_lut_NAND2X1
AOAI21X1_18 [_317_ _314_ _319_] _19_ d_lut_OAI21X1
AINVX1_18 [_20__1_] _324_ d_lut_INVX1
AOR2X2_8 [i_add_term2_29_ i_add_term1_29_] _325_ d_lut_OR2X2
ANAND2X1_21 [i_add_term2_29_ i_add_term1_29_] _326_ d_lut_NAND2X1
ANAND3X1_9 [_324_ _326_ _325_] _327_ d_lut_NAND3X1
ANOR2X1_23 [i_add_term2_29_ i_add_term1_29_] _321_ d_lut_NOR2X1
AAND2X2_11 [i_add_term2_29_ i_add_term1_29_] _322_ d_lut_AND2X2
AOAI21X1_19 [_321_ _322_ _20__1_] _323_ d_lut_OAI21X1
ANAND2X1_22 [_323_ _327_] _0__29_ d_lut_NAND2X1
AOAI21X1_20 [_324_ _321_ _326_] _20__2_ d_lut_OAI21X1
AINVX1_19 [_20__2_] _331_ d_lut_INVX1
AOR2X2_9 [i_add_term2_30_ i_add_term1_30_] _332_ d_lut_OR2X2
ANAND2X1_23 [i_add_term2_30_ i_add_term1_30_] _333_ d_lut_NAND2X1
ANAND3X1_10 [_331_ _333_ _332_] _334_ d_lut_NAND3X1
ANOR2X1_24 [i_add_term2_30_ i_add_term1_30_] _328_ d_lut_NOR2X1
AAND2X2_12 [i_add_term2_30_ i_add_term1_30_] _329_ d_lut_AND2X2
AOAI21X1_21 [_328_ _329_ _20__2_] _330_ d_lut_OAI21X1
ANAND2X1_24 [_330_ _334_] _0__30_ d_lut_NAND2X1
AOAI21X1_22 [_331_ _328_ _333_] _20__3_ d_lut_OAI21X1
AINVX1_20 [i_add_term1_28_] _335_ d_lut_INVX1
ANOR2X1_25 [i_add_term2_28_ _335_] _336_ d_lut_NOR2X1
AINVX1_21 [i_add_term2_28_] _337_ d_lut_INVX1
ANOR2X1_26 [i_add_term1_28_ _337_] _338_ d_lut_NOR2X1
AINVX1_22 [i_add_term1_29_] _339_ d_lut_INVX1
ANOR2X1_27 [i_add_term2_29_ _339_] _340_ d_lut_NOR2X1
AINVX1_23 [i_add_term2_29_] _341_ d_lut_INVX1
ANOR2X1_28 [i_add_term1_29_ _341_] _342_ d_lut_NOR2X1
AOAI22X1_3 [_336_ _338_ _340_ _342_] _343_ d_lut_OAI22X1
ANOR2X1_29 [i_add_term2_31_ i_add_term1_31_] _344_ d_lut_NOR2X1
AAND2X2_13 [i_add_term2_31_ i_add_term1_31_] _345_ d_lut_AND2X2
ANOR2X1_30 [_344_ _345_] _346_ d_lut_NOR2X1
AXOR2X1_3 [i_add_term2_30_ i_add_term1_30_] _347_ d_lut_XOR2X1
ANAND2X1_25 [_346_ _347_] _348_ d_lut_NAND2X1
ANOR2X1_31 [_343_ _348_] _21_ d_lut_NOR2X1
AINVX1_24 [_19_] _349_ d_lut_INVX1
ANAND2X1_26 [gnd _21_] _350_ d_lut_NAND2X1
AOAI21X1_23 [_21_ _349_ _350_] w_cout_7_ d_lut_OAI21X1
AINVX1_25 [w_cout_7_] _354_ d_lut_INVX1
AOR2X2_10 [i_add_term2_32_ i_add_term1_32_] _355_ d_lut_OR2X2
ANAND2X1_27 [i_add_term2_32_ i_add_term1_32_] _356_ d_lut_NAND2X1
ANAND3X1_11 [_354_ _356_ _355_] _357_ d_lut_NAND3X1
ANOR2X1_32 [i_add_term2_32_ i_add_term1_32_] _351_ d_lut_NOR2X1
AAND2X2_14 [i_add_term2_32_ i_add_term1_32_] _352_ d_lut_AND2X2
AOAI21X1_24 [_351_ _352_ w_cout_7_] _353_ d_lut_OAI21X1
ANAND2X1_28 [_353_ _357_] _0__32_ d_lut_NAND2X1
AOAI21X1_25 [_354_ _351_ _356_] _23__1_ d_lut_OAI21X1
AINVX1_26 [_23__3_] _361_ d_lut_INVX1
AOR2X2_11 [i_add_term2_35_ i_add_term1_35_] _362_ d_lut_OR2X2
ANAND2X1_29 [i_add_term2_35_ i_add_term1_35_] _363_ d_lut_NAND2X1
ANAND3X1_12 [_361_ _363_ _362_] _364_ d_lut_NAND3X1
ANOR2X1_33 [i_add_term2_35_ i_add_term1_35_] _358_ d_lut_NOR2X1
AAND2X2_15 [i_add_term2_35_ i_add_term1_35_] _359_ d_lut_AND2X2
AOAI21X1_26 [_358_ _359_ _23__3_] _360_ d_lut_OAI21X1
ANAND2X1_30 [_360_ _364_] _0__35_ d_lut_NAND2X1
AOAI21X1_27 [_361_ _358_ _363_] _22_ d_lut_OAI21X1
AINVX1_27 [_23__1_] _368_ d_lut_INVX1
AOR2X2_12 [i_add_term2_33_ i_add_term1_33_] _369_ d_lut_OR2X2
ANAND2X1_31 [i_add_term2_33_ i_add_term1_33_] _370_ d_lut_NAND2X1
ANAND3X1_13 [_368_ _370_ _369_] _371_ d_lut_NAND3X1
ANOR2X1_34 [i_add_term2_33_ i_add_term1_33_] _365_ d_lut_NOR2X1
AAND2X2_16 [i_add_term2_33_ i_add_term1_33_] _366_ d_lut_AND2X2
AOAI21X1_28 [_365_ _366_ _23__1_] _367_ d_lut_OAI21X1
ANAND2X1_32 [_367_ _371_] _0__33_ d_lut_NAND2X1
AOAI21X1_29 [_368_ _365_ _370_] _23__2_ d_lut_OAI21X1
AINVX1_28 [_23__2_] _375_ d_lut_INVX1
AOR2X2_13 [i_add_term2_34_ i_add_term1_34_] _376_ d_lut_OR2X2
ANAND2X1_33 [i_add_term2_34_ i_add_term1_34_] _377_ d_lut_NAND2X1
ANAND3X1_14 [_375_ _377_ _376_] _378_ d_lut_NAND3X1
ANOR2X1_35 [i_add_term2_34_ i_add_term1_34_] _372_ d_lut_NOR2X1
AAND2X2_17 [i_add_term2_34_ i_add_term1_34_] _373_ d_lut_AND2X2
AOAI21X1_30 [_372_ _373_ _23__2_] _374_ d_lut_OAI21X1
ANAND2X1_34 [_374_ _378_] _0__34_ d_lut_NAND2X1
AOAI21X1_31 [_375_ _372_ _377_] _23__3_ d_lut_OAI21X1
AINVX1_29 [i_add_term1_32_] _379_ d_lut_INVX1
ANOR2X1_36 [i_add_term2_32_ _379_] _380_ d_lut_NOR2X1
AINVX1_30 [i_add_term2_32_] _381_ d_lut_INVX1
ANOR2X1_37 [i_add_term1_32_ _381_] _382_ d_lut_NOR2X1
AINVX1_31 [i_add_term1_33_] _383_ d_lut_INVX1
ANOR2X1_38 [i_add_term2_33_ _383_] _384_ d_lut_NOR2X1
AINVX1_32 [i_add_term2_33_] _385_ d_lut_INVX1
ANOR2X1_39 [i_add_term1_33_ _385_] _386_ d_lut_NOR2X1
AOAI22X1_4 [_380_ _382_ _384_ _386_] _387_ d_lut_OAI22X1
ANOR2X1_40 [i_add_term2_35_ i_add_term1_35_] _388_ d_lut_NOR2X1
AAND2X2_18 [i_add_term2_35_ i_add_term1_35_] _389_ d_lut_AND2X2
ANOR2X1_41 [_388_ _389_] _390_ d_lut_NOR2X1
AXOR2X1_4 [i_add_term2_34_ i_add_term1_34_] _391_ d_lut_XOR2X1
ANAND2X1_35 [_390_ _391_] _392_ d_lut_NAND2X1
ANOR2X1_42 [_387_ _392_] _24_ d_lut_NOR2X1
AINVX1_33 [_22_] _393_ d_lut_INVX1
ANAND2X1_36 [gnd _24_] _394_ d_lut_NAND2X1
AOAI21X1_32 [_24_ _393_ _394_] w_cout_8_ d_lut_OAI21X1
AINVX1_34 [w_cout_8_] _398_ d_lut_INVX1
AOR2X2_14 [i_add_term2_36_ i_add_term1_36_] _399_ d_lut_OR2X2
ANAND2X1_37 [i_add_term2_36_ i_add_term1_36_] _400_ d_lut_NAND2X1
ANAND3X1_15 [_398_ _400_ _399_] _401_ d_lut_NAND3X1
ANOR2X1_43 [i_add_term2_36_ i_add_term1_36_] _395_ d_lut_NOR2X1
AAND2X2_19 [i_add_term2_36_ i_add_term1_36_] _396_ d_lut_AND2X2
AOAI21X1_33 [_395_ _396_ w_cout_8_] _397_ d_lut_OAI21X1
ANAND2X1_38 [_397_ _401_] _0__36_ d_lut_NAND2X1
AOAI21X1_34 [_398_ _395_ _400_] _26__1_ d_lut_OAI21X1
AINVX1_35 [_26__3_] _405_ d_lut_INVX1
AOR2X2_15 [i_add_term2_39_ i_add_term1_39_] _406_ d_lut_OR2X2
ANAND2X1_39 [i_add_term2_39_ i_add_term1_39_] _407_ d_lut_NAND2X1
ANAND3X1_16 [_405_ _407_ _406_] _408_ d_lut_NAND3X1
ANOR2X1_44 [i_add_term2_39_ i_add_term1_39_] _402_ d_lut_NOR2X1
AAND2X2_20 [i_add_term2_39_ i_add_term1_39_] _403_ d_lut_AND2X2
AOAI21X1_35 [_402_ _403_ _26__3_] _404_ d_lut_OAI21X1
ANAND2X1_40 [_404_ _408_] _0__39_ d_lut_NAND2X1
AOAI21X1_36 [_405_ _402_ _407_] _25_ d_lut_OAI21X1
AINVX1_36 [_26__1_] _412_ d_lut_INVX1
AOR2X2_16 [i_add_term2_37_ i_add_term1_37_] _413_ d_lut_OR2X2
ANAND2X1_41 [i_add_term2_37_ i_add_term1_37_] _414_ d_lut_NAND2X1
ANAND3X1_17 [_412_ _414_ _413_] _415_ d_lut_NAND3X1
ANOR2X1_45 [i_add_term2_37_ i_add_term1_37_] _409_ d_lut_NOR2X1
AAND2X2_21 [i_add_term2_37_ i_add_term1_37_] _410_ d_lut_AND2X2
AOAI21X1_37 [_409_ _410_ _26__1_] _411_ d_lut_OAI21X1
ANAND2X1_42 [_411_ _415_] _0__37_ d_lut_NAND2X1
AOAI21X1_38 [_412_ _409_ _414_] _26__2_ d_lut_OAI21X1
AINVX1_37 [_26__2_] _419_ d_lut_INVX1
AOR2X2_17 [i_add_term2_38_ i_add_term1_38_] _420_ d_lut_OR2X2
ANAND2X1_43 [i_add_term2_38_ i_add_term1_38_] _421_ d_lut_NAND2X1
ANAND3X1_18 [_419_ _421_ _420_] _422_ d_lut_NAND3X1
ANOR2X1_46 [i_add_term2_38_ i_add_term1_38_] _416_ d_lut_NOR2X1
AAND2X2_22 [i_add_term2_38_ i_add_term1_38_] _417_ d_lut_AND2X2
AOAI21X1_39 [_416_ _417_ _26__2_] _418_ d_lut_OAI21X1
ANAND2X1_44 [_418_ _422_] _0__38_ d_lut_NAND2X1
AOAI21X1_40 [_419_ _416_ _421_] _26__3_ d_lut_OAI21X1
AINVX1_38 [i_add_term1_36_] _423_ d_lut_INVX1
ANOR2X1_47 [i_add_term2_36_ _423_] _424_ d_lut_NOR2X1
AINVX1_39 [i_add_term2_36_] _425_ d_lut_INVX1
ANOR2X1_48 [i_add_term1_36_ _425_] _426_ d_lut_NOR2X1
AINVX1_40 [i_add_term1_37_] _427_ d_lut_INVX1
ANOR2X1_49 [i_add_term2_37_ _427_] _428_ d_lut_NOR2X1
AINVX1_41 [i_add_term2_37_] _429_ d_lut_INVX1
ANOR2X1_50 [i_add_term1_37_ _429_] _430_ d_lut_NOR2X1
AOAI22X1_5 [_424_ _426_ _428_ _430_] _431_ d_lut_OAI22X1
ANOR2X1_51 [i_add_term2_39_ i_add_term1_39_] _432_ d_lut_NOR2X1
AAND2X2_23 [i_add_term2_39_ i_add_term1_39_] _433_ d_lut_AND2X2
ANOR2X1_52 [_432_ _433_] _434_ d_lut_NOR2X1
AXOR2X1_5 [i_add_term2_38_ i_add_term1_38_] _435_ d_lut_XOR2X1
ANAND2X1_45 [_434_ _435_] _436_ d_lut_NAND2X1
ANOR2X1_53 [_431_ _436_] _27_ d_lut_NOR2X1
AINVX1_42 [_25_] _437_ d_lut_INVX1
ANAND2X1_46 [gnd _27_] _438_ d_lut_NAND2X1
AOAI21X1_41 [_27_ _437_ _438_] w_cout_9_ d_lut_OAI21X1
AINVX1_43 [w_cout_9_] _442_ d_lut_INVX1
AOR2X2_18 [i_add_term2_40_ i_add_term1_40_] _443_ d_lut_OR2X2
ANAND2X1_47 [i_add_term2_40_ i_add_term1_40_] _444_ d_lut_NAND2X1
ANAND3X1_19 [_442_ _444_ _443_] _445_ d_lut_NAND3X1
ANOR2X1_54 [i_add_term2_40_ i_add_term1_40_] _439_ d_lut_NOR2X1
AAND2X2_24 [i_add_term2_40_ i_add_term1_40_] _440_ d_lut_AND2X2
AOAI21X1_42 [_439_ _440_ w_cout_9_] _441_ d_lut_OAI21X1
ANAND2X1_48 [_441_ _445_] _0__40_ d_lut_NAND2X1
AOAI21X1_43 [_442_ _439_ _444_] _29__1_ d_lut_OAI21X1
AINVX1_44 [_29__3_] _449_ d_lut_INVX1
AOR2X2_19 [i_add_term2_43_ i_add_term1_43_] _450_ d_lut_OR2X2
ANAND2X1_49 [i_add_term2_43_ i_add_term1_43_] _451_ d_lut_NAND2X1
ANAND3X1_20 [_449_ _451_ _450_] _452_ d_lut_NAND3X1
ANOR2X1_55 [i_add_term2_43_ i_add_term1_43_] _446_ d_lut_NOR2X1
AAND2X2_25 [i_add_term2_43_ i_add_term1_43_] _447_ d_lut_AND2X2
AOAI21X1_44 [_446_ _447_ _29__3_] _448_ d_lut_OAI21X1
ANAND2X1_50 [_448_ _452_] _0__43_ d_lut_NAND2X1
AOAI21X1_45 [_449_ _446_ _451_] _28_ d_lut_OAI21X1
AINVX1_45 [_29__1_] _456_ d_lut_INVX1
AOR2X2_20 [i_add_term2_41_ i_add_term1_41_] _457_ d_lut_OR2X2
ANAND2X1_51 [i_add_term2_41_ i_add_term1_41_] _458_ d_lut_NAND2X1
ANAND3X1_21 [_456_ _458_ _457_] _459_ d_lut_NAND3X1
ANOR2X1_56 [i_add_term2_41_ i_add_term1_41_] _453_ d_lut_NOR2X1
AAND2X2_26 [i_add_term2_41_ i_add_term1_41_] _454_ d_lut_AND2X2
AOAI21X1_46 [_453_ _454_ _29__1_] _455_ d_lut_OAI21X1
ANAND2X1_52 [_455_ _459_] _0__41_ d_lut_NAND2X1
AOAI21X1_47 [_456_ _453_ _458_] _29__2_ d_lut_OAI21X1
AINVX1_46 [_29__2_] _463_ d_lut_INVX1
AOR2X2_21 [i_add_term2_42_ i_add_term1_42_] _464_ d_lut_OR2X2
ANAND2X1_53 [i_add_term2_42_ i_add_term1_42_] _465_ d_lut_NAND2X1
ANAND3X1_22 [_463_ _465_ _464_] _466_ d_lut_NAND3X1
ANOR2X1_57 [i_add_term2_42_ i_add_term1_42_] _460_ d_lut_NOR2X1
AAND2X2_27 [i_add_term2_42_ i_add_term1_42_] _461_ d_lut_AND2X2
AOAI21X1_48 [_460_ _461_ _29__2_] _462_ d_lut_OAI21X1
ANAND2X1_54 [_462_ _466_] _0__42_ d_lut_NAND2X1
AOAI21X1_49 [_463_ _460_ _465_] _29__3_ d_lut_OAI21X1
AINVX1_47 [i_add_term1_40_] _467_ d_lut_INVX1
ANOR2X1_58 [i_add_term2_40_ _467_] _468_ d_lut_NOR2X1
AINVX1_48 [i_add_term2_40_] _469_ d_lut_INVX1
ANOR2X1_59 [i_add_term1_40_ _469_] _470_ d_lut_NOR2X1
AINVX1_49 [i_add_term1_41_] _471_ d_lut_INVX1
ANOR2X1_60 [i_add_term2_41_ _471_] _472_ d_lut_NOR2X1
AINVX1_50 [i_add_term2_41_] _473_ d_lut_INVX1
ANOR2X1_61 [i_add_term1_41_ _473_] _474_ d_lut_NOR2X1
AOAI22X1_6 [_468_ _470_ _472_ _474_] _475_ d_lut_OAI22X1
ANOR2X1_62 [i_add_term2_43_ i_add_term1_43_] _476_ d_lut_NOR2X1
AAND2X2_28 [i_add_term2_43_ i_add_term1_43_] _477_ d_lut_AND2X2
ANOR2X1_63 [_476_ _477_] _478_ d_lut_NOR2X1
AXOR2X1_6 [i_add_term2_42_ i_add_term1_42_] _479_ d_lut_XOR2X1
ANAND2X1_55 [_478_ _479_] _480_ d_lut_NAND2X1
ANOR2X1_64 [_475_ _480_] _30_ d_lut_NOR2X1
AINVX1_51 [_28_] _481_ d_lut_INVX1
ANAND2X1_56 [gnd _30_] _482_ d_lut_NAND2X1
AOAI21X1_50 [_30_ _481_ _482_] w_cout_10_ d_lut_OAI21X1
AINVX1_52 [w_cout_10_] _486_ d_lut_INVX1
AOR2X2_22 [i_add_term2_44_ i_add_term1_44_] _487_ d_lut_OR2X2
ANAND2X1_57 [i_add_term2_44_ i_add_term1_44_] _488_ d_lut_NAND2X1
ANAND3X1_23 [_486_ _488_ _487_] _489_ d_lut_NAND3X1
ANOR2X1_65 [i_add_term2_44_ i_add_term1_44_] _483_ d_lut_NOR2X1
AAND2X2_29 [i_add_term2_44_ i_add_term1_44_] _484_ d_lut_AND2X2
AOAI21X1_51 [_483_ _484_ w_cout_10_] _485_ d_lut_OAI21X1
ANAND2X1_58 [_485_ _489_] _0__44_ d_lut_NAND2X1
AOAI21X1_52 [_486_ _483_ _488_] _32__1_ d_lut_OAI21X1
AINVX1_53 [_32__3_] _493_ d_lut_INVX1
AOR2X2_23 [i_add_term2_47_ i_add_term1_47_] _494_ d_lut_OR2X2
ANAND2X1_59 [i_add_term2_47_ i_add_term1_47_] _495_ d_lut_NAND2X1
ANAND3X1_24 [_493_ _495_ _494_] _496_ d_lut_NAND3X1
ANOR2X1_66 [i_add_term2_47_ i_add_term1_47_] _490_ d_lut_NOR2X1
AAND2X2_30 [i_add_term2_47_ i_add_term1_47_] _491_ d_lut_AND2X2
AOAI21X1_53 [_490_ _491_ _32__3_] _492_ d_lut_OAI21X1
ANAND2X1_60 [_492_ _496_] _0__47_ d_lut_NAND2X1
AOAI21X1_54 [_493_ _490_ _495_] _31_ d_lut_OAI21X1
AINVX1_54 [_32__1_] _500_ d_lut_INVX1
AOR2X2_24 [i_add_term2_45_ i_add_term1_45_] _501_ d_lut_OR2X2
ANAND2X1_61 [i_add_term2_45_ i_add_term1_45_] _502_ d_lut_NAND2X1
ANAND3X1_25 [_500_ _502_ _501_] _503_ d_lut_NAND3X1
ANOR2X1_67 [i_add_term2_45_ i_add_term1_45_] _497_ d_lut_NOR2X1
AAND2X2_31 [i_add_term2_45_ i_add_term1_45_] _498_ d_lut_AND2X2
AOAI21X1_55 [_497_ _498_ _32__1_] _499_ d_lut_OAI21X1
ANAND2X1_62 [_499_ _503_] _0__45_ d_lut_NAND2X1
AOAI21X1_56 [_500_ _497_ _502_] _32__2_ d_lut_OAI21X1
AINVX1_55 [_32__2_] _507_ d_lut_INVX1
AOR2X2_25 [i_add_term2_46_ i_add_term1_46_] _508_ d_lut_OR2X2
ANAND2X1_63 [i_add_term2_46_ i_add_term1_46_] _509_ d_lut_NAND2X1
ANAND3X1_26 [_507_ _509_ _508_] _510_ d_lut_NAND3X1
ANOR2X1_68 [i_add_term2_46_ i_add_term1_46_] _504_ d_lut_NOR2X1
AAND2X2_32 [i_add_term2_46_ i_add_term1_46_] _505_ d_lut_AND2X2
AOAI21X1_57 [_504_ _505_ _32__2_] _506_ d_lut_OAI21X1
ANAND2X1_64 [_506_ _510_] _0__46_ d_lut_NAND2X1
AOAI21X1_58 [_507_ _504_ _509_] _32__3_ d_lut_OAI21X1
AINVX1_56 [i_add_term1_44_] _511_ d_lut_INVX1
ANOR2X1_69 [i_add_term2_44_ _511_] _512_ d_lut_NOR2X1
AINVX1_57 [i_add_term2_44_] _513_ d_lut_INVX1
ANOR2X1_70 [i_add_term1_44_ _513_] _514_ d_lut_NOR2X1
AINVX1_58 [i_add_term1_45_] _515_ d_lut_INVX1
ANOR2X1_71 [i_add_term2_45_ _515_] _516_ d_lut_NOR2X1
AINVX1_59 [i_add_term2_45_] _517_ d_lut_INVX1
ANOR2X1_72 [i_add_term1_45_ _517_] _518_ d_lut_NOR2X1
AOAI22X1_7 [_512_ _514_ _516_ _518_] _519_ d_lut_OAI22X1
ANOR2X1_73 [i_add_term2_47_ i_add_term1_47_] _520_ d_lut_NOR2X1
AAND2X2_33 [i_add_term2_47_ i_add_term1_47_] _521_ d_lut_AND2X2
ANOR2X1_74 [_520_ _521_] _522_ d_lut_NOR2X1
AXOR2X1_7 [i_add_term2_46_ i_add_term1_46_] _523_ d_lut_XOR2X1
ANAND2X1_65 [_522_ _523_] _524_ d_lut_NAND2X1
ANOR2X1_75 [_519_ _524_] _33_ d_lut_NOR2X1
AINVX1_60 [_31_] _525_ d_lut_INVX1
ANAND2X1_66 [gnd _33_] _526_ d_lut_NAND2X1
AOAI21X1_59 [_33_ _525_ _526_] w_cout_11_ d_lut_OAI21X1
AINVX1_61 [w_cout_11_] _530_ d_lut_INVX1
AOR2X2_26 [i_add_term2_48_ i_add_term1_48_] _531_ d_lut_OR2X2
ANAND2X1_67 [i_add_term2_48_ i_add_term1_48_] _532_ d_lut_NAND2X1
ANAND3X1_27 [_530_ _532_ _531_] _533_ d_lut_NAND3X1
ANOR2X1_76 [i_add_term2_48_ i_add_term1_48_] _527_ d_lut_NOR2X1
AAND2X2_34 [i_add_term2_48_ i_add_term1_48_] _528_ d_lut_AND2X2
AOAI21X1_60 [_527_ _528_ w_cout_11_] _529_ d_lut_OAI21X1
ANAND2X1_68 [_529_ _533_] _0__48_ d_lut_NAND2X1
AOAI21X1_61 [_530_ _527_ _532_] _35__1_ d_lut_OAI21X1
AINVX1_62 [_35__3_] _537_ d_lut_INVX1
AOR2X2_27 [i_add_term2_51_ i_add_term1_51_] _538_ d_lut_OR2X2
ANAND2X1_69 [i_add_term2_51_ i_add_term1_51_] _539_ d_lut_NAND2X1
ANAND3X1_28 [_537_ _539_ _538_] _540_ d_lut_NAND3X1
ANOR2X1_77 [i_add_term2_51_ i_add_term1_51_] _534_ d_lut_NOR2X1
AAND2X2_35 [i_add_term2_51_ i_add_term1_51_] _535_ d_lut_AND2X2
AOAI21X1_62 [_534_ _535_ _35__3_] _536_ d_lut_OAI21X1
ANAND2X1_70 [_536_ _540_] _0__51_ d_lut_NAND2X1
AOAI21X1_63 [_537_ _534_ _539_] _34_ d_lut_OAI21X1
AINVX1_63 [_35__1_] _544_ d_lut_INVX1
AOR2X2_28 [i_add_term2_49_ i_add_term1_49_] _545_ d_lut_OR2X2
ANAND2X1_71 [i_add_term2_49_ i_add_term1_49_] _546_ d_lut_NAND2X1
ANAND3X1_29 [_544_ _546_ _545_] _547_ d_lut_NAND3X1
ANOR2X1_78 [i_add_term2_49_ i_add_term1_49_] _541_ d_lut_NOR2X1
AAND2X2_36 [i_add_term2_49_ i_add_term1_49_] _542_ d_lut_AND2X2
AOAI21X1_64 [_541_ _542_ _35__1_] _543_ d_lut_OAI21X1
ANAND2X1_72 [_543_ _547_] _0__49_ d_lut_NAND2X1
AOAI21X1_65 [_544_ _541_ _546_] _35__2_ d_lut_OAI21X1
AINVX1_64 [_35__2_] _551_ d_lut_INVX1
AOR2X2_29 [i_add_term2_50_ i_add_term1_50_] _552_ d_lut_OR2X2
ANAND2X1_73 [i_add_term2_50_ i_add_term1_50_] _553_ d_lut_NAND2X1
ANAND3X1_30 [_551_ _553_ _552_] _554_ d_lut_NAND3X1
ANOR2X1_79 [i_add_term2_50_ i_add_term1_50_] _548_ d_lut_NOR2X1
AAND2X2_37 [i_add_term2_50_ i_add_term1_50_] _549_ d_lut_AND2X2
AOAI21X1_66 [_548_ _549_ _35__2_] _550_ d_lut_OAI21X1
ANAND2X1_74 [_550_ _554_] _0__50_ d_lut_NAND2X1
AOAI21X1_67 [_551_ _548_ _553_] _35__3_ d_lut_OAI21X1
AINVX1_65 [i_add_term1_48_] _555_ d_lut_INVX1
ANOR2X1_80 [i_add_term2_48_ _555_] _556_ d_lut_NOR2X1
AINVX1_66 [i_add_term2_48_] _557_ d_lut_INVX1
ANOR2X1_81 [i_add_term1_48_ _557_] _558_ d_lut_NOR2X1
AINVX1_67 [i_add_term1_49_] _559_ d_lut_INVX1
ANOR2X1_82 [i_add_term2_49_ _559_] _560_ d_lut_NOR2X1
AINVX1_68 [i_add_term2_49_] _561_ d_lut_INVX1
ANOR2X1_83 [i_add_term1_49_ _561_] _562_ d_lut_NOR2X1
AOAI22X1_8 [_556_ _558_ _560_ _562_] _563_ d_lut_OAI22X1
ANOR2X1_84 [i_add_term2_51_ i_add_term1_51_] _564_ d_lut_NOR2X1
AAND2X2_38 [i_add_term2_51_ i_add_term1_51_] _565_ d_lut_AND2X2
ANOR2X1_85 [_564_ _565_] _566_ d_lut_NOR2X1
AXOR2X1_8 [i_add_term2_50_ i_add_term1_50_] _567_ d_lut_XOR2X1
ANAND2X1_75 [_566_ _567_] _568_ d_lut_NAND2X1
ANOR2X1_86 [_563_ _568_] _36_ d_lut_NOR2X1
AINVX1_69 [_34_] _569_ d_lut_INVX1
ANAND2X1_76 [gnd _36_] _570_ d_lut_NAND2X1
AOAI21X1_68 [_36_ _569_ _570_] w_cout_12_ d_lut_OAI21X1
AINVX1_70 [w_cout_12_] _574_ d_lut_INVX1
AOR2X2_30 [i_add_term2_52_ i_add_term1_52_] _575_ d_lut_OR2X2
ANAND2X1_77 [i_add_term2_52_ i_add_term1_52_] _576_ d_lut_NAND2X1
ANAND3X1_31 [_574_ _576_ _575_] _577_ d_lut_NAND3X1
ANOR2X1_87 [i_add_term2_52_ i_add_term1_52_] _571_ d_lut_NOR2X1
AAND2X2_39 [i_add_term2_52_ i_add_term1_52_] _572_ d_lut_AND2X2
AOAI21X1_69 [_571_ _572_ w_cout_12_] _573_ d_lut_OAI21X1
ANAND2X1_78 [_573_ _577_] _0__52_ d_lut_NAND2X1
AOAI21X1_70 [_574_ _571_ _576_] _38__1_ d_lut_OAI21X1
AINVX1_71 [_38__3_] _581_ d_lut_INVX1
AOR2X2_31 [i_add_term2_55_ i_add_term1_55_] _582_ d_lut_OR2X2
ANAND2X1_79 [i_add_term2_55_ i_add_term1_55_] _583_ d_lut_NAND2X1
ANAND3X1_32 [_581_ _583_ _582_] _584_ d_lut_NAND3X1
ANOR2X1_88 [i_add_term2_55_ i_add_term1_55_] _578_ d_lut_NOR2X1
AAND2X2_40 [i_add_term2_55_ i_add_term1_55_] _579_ d_lut_AND2X2
AOAI21X1_71 [_578_ _579_ _38__3_] _580_ d_lut_OAI21X1
ANAND2X1_80 [_580_ _584_] _0__55_ d_lut_NAND2X1
AOAI21X1_72 [_581_ _578_ _583_] _37_ d_lut_OAI21X1
AINVX1_72 [_38__1_] _588_ d_lut_INVX1
AOR2X2_32 [i_add_term2_53_ i_add_term1_53_] _589_ d_lut_OR2X2
ANAND2X1_81 [i_add_term2_53_ i_add_term1_53_] _590_ d_lut_NAND2X1
ANAND3X1_33 [_588_ _590_ _589_] _591_ d_lut_NAND3X1
ANOR2X1_89 [i_add_term2_53_ i_add_term1_53_] _585_ d_lut_NOR2X1
AAND2X2_41 [i_add_term2_53_ i_add_term1_53_] _586_ d_lut_AND2X2
AOAI21X1_73 [_585_ _586_ _38__1_] _587_ d_lut_OAI21X1
ANAND2X1_82 [_587_ _591_] _0__53_ d_lut_NAND2X1
AOAI21X1_74 [_588_ _585_ _590_] _38__2_ d_lut_OAI21X1
AINVX1_73 [_38__2_] _595_ d_lut_INVX1
AOR2X2_33 [i_add_term2_54_ i_add_term1_54_] _596_ d_lut_OR2X2
ANAND2X1_83 [i_add_term2_54_ i_add_term1_54_] _597_ d_lut_NAND2X1
ANAND3X1_34 [_595_ _597_ _596_] _598_ d_lut_NAND3X1
ANOR2X1_90 [i_add_term2_54_ i_add_term1_54_] _592_ d_lut_NOR2X1
AAND2X2_42 [i_add_term2_54_ i_add_term1_54_] _593_ d_lut_AND2X2
AOAI21X1_75 [_592_ _593_ _38__2_] _594_ d_lut_OAI21X1
ANAND2X1_84 [_594_ _598_] _0__54_ d_lut_NAND2X1
AOAI21X1_76 [_595_ _592_ _597_] _38__3_ d_lut_OAI21X1
AINVX1_74 [i_add_term1_52_] _599_ d_lut_INVX1
ANOR2X1_91 [i_add_term2_52_ _599_] _600_ d_lut_NOR2X1
AINVX1_75 [i_add_term2_52_] _601_ d_lut_INVX1
ANOR2X1_92 [i_add_term1_52_ _601_] _602_ d_lut_NOR2X1
AINVX1_76 [i_add_term1_53_] _603_ d_lut_INVX1
ANOR2X1_93 [i_add_term2_53_ _603_] _604_ d_lut_NOR2X1
AINVX1_77 [i_add_term2_53_] _605_ d_lut_INVX1
ANOR2X1_94 [i_add_term1_53_ _605_] _606_ d_lut_NOR2X1
AOAI22X1_9 [_600_ _602_ _604_ _606_] _607_ d_lut_OAI22X1
ANOR2X1_95 [i_add_term2_55_ i_add_term1_55_] _608_ d_lut_NOR2X1
AAND2X2_43 [i_add_term2_55_ i_add_term1_55_] _609_ d_lut_AND2X2
ANOR2X1_96 [_608_ _609_] _610_ d_lut_NOR2X1
AXOR2X1_9 [i_add_term2_54_ i_add_term1_54_] _611_ d_lut_XOR2X1
ANAND2X1_85 [_610_ _611_] _612_ d_lut_NAND2X1
ANOR2X1_97 [_607_ _612_] _39_ d_lut_NOR2X1
AINVX1_78 [_37_] _613_ d_lut_INVX1
ANAND2X1_86 [gnd _39_] _614_ d_lut_NAND2X1
AOAI21X1_77 [_39_ _613_ _614_] w_cout_13_ d_lut_OAI21X1
AINVX1_79 [w_cout_13_] _618_ d_lut_INVX1
AOR2X2_34 [i_add_term2_56_ i_add_term1_56_] _619_ d_lut_OR2X2
ANAND2X1_87 [i_add_term2_56_ i_add_term1_56_] _620_ d_lut_NAND2X1
ANAND3X1_35 [_618_ _620_ _619_] _621_ d_lut_NAND3X1
ANOR2X1_98 [i_add_term2_56_ i_add_term1_56_] _615_ d_lut_NOR2X1
AAND2X2_44 [i_add_term2_56_ i_add_term1_56_] _616_ d_lut_AND2X2
AOAI21X1_78 [_615_ _616_ w_cout_13_] _617_ d_lut_OAI21X1
ANAND2X1_88 [_617_ _621_] _0__56_ d_lut_NAND2X1
AOAI21X1_79 [_618_ _615_ _620_] _41__1_ d_lut_OAI21X1
AINVX1_80 [_41__3_] _625_ d_lut_INVX1
AOR2X2_35 [i_add_term2_59_ i_add_term1_59_] _626_ d_lut_OR2X2
ANAND2X1_89 [i_add_term2_59_ i_add_term1_59_] _627_ d_lut_NAND2X1
ANAND3X1_36 [_625_ _627_ _626_] _628_ d_lut_NAND3X1
ANOR2X1_99 [i_add_term2_59_ i_add_term1_59_] _622_ d_lut_NOR2X1
AAND2X2_45 [i_add_term2_59_ i_add_term1_59_] _623_ d_lut_AND2X2
AOAI21X1_80 [_622_ _623_ _41__3_] _624_ d_lut_OAI21X1
ANAND2X1_90 [_624_ _628_] _0__59_ d_lut_NAND2X1
AOAI21X1_81 [_625_ _622_ _627_] _40_ d_lut_OAI21X1
AINVX1_81 [_41__1_] _632_ d_lut_INVX1
AOR2X2_36 [i_add_term2_57_ i_add_term1_57_] _633_ d_lut_OR2X2
ANAND2X1_91 [i_add_term2_57_ i_add_term1_57_] _634_ d_lut_NAND2X1
ANAND3X1_37 [_632_ _634_ _633_] _635_ d_lut_NAND3X1
ANOR2X1_100 [i_add_term2_57_ i_add_term1_57_] _629_ d_lut_NOR2X1
AAND2X2_46 [i_add_term2_57_ i_add_term1_57_] _630_ d_lut_AND2X2
AOAI21X1_82 [_629_ _630_ _41__1_] _631_ d_lut_OAI21X1
ANAND2X1_92 [_631_ _635_] _0__57_ d_lut_NAND2X1
AOAI21X1_83 [_632_ _629_ _634_] _41__2_ d_lut_OAI21X1
AINVX1_82 [_41__2_] _639_ d_lut_INVX1
AOR2X2_37 [i_add_term2_58_ i_add_term1_58_] _640_ d_lut_OR2X2
ANAND2X1_93 [i_add_term2_58_ i_add_term1_58_] _641_ d_lut_NAND2X1
ANAND3X1_38 [_639_ _641_ _640_] _642_ d_lut_NAND3X1
ANOR2X1_101 [i_add_term2_58_ i_add_term1_58_] _636_ d_lut_NOR2X1
AAND2X2_47 [i_add_term2_58_ i_add_term1_58_] _637_ d_lut_AND2X2
AOAI21X1_84 [_636_ _637_ _41__2_] _638_ d_lut_OAI21X1