* XSpice netlist created from SPICE and liberty sources by spi2xspice.py
*SPICE netlist created from BLIF module CSkipA_61bit by blif2BSpice
.subckt CSkipA_61bit a_vdd a_gnd a_i_add_term1_0_ a_i_add_term1_1_ a_i_add_term1_2_ a_i_add_term1_3_ a_i_add_term1_4_ a_i_add_term1_5_ a_i_add_term1_6_ a_i_add_term1_7_ a_i_add_term1_8_ a_i_add_term1_9_ a_i_add_term1_10_ a_i_add_term1_11_ a_i_add_term1_12_ a_i_add_term1_13_ a_i_add_term1_14_ a_i_add_term1_15_ a_i_add_term1_16_ a_i_add_term1_17_ a_i_add_term1_18_ a_i_add_term1_19_ a_i_add_term1_20_ a_i_add_term1_21_ a_i_add_term1_22_ a_i_add_term1_23_ a_i_add_term1_24_ a_i_add_term1_25_ a_i_add_term1_26_ a_i_add_term1_27_ a_i_add_term1_28_ a_i_add_term1_29_ a_i_add_term1_30_ a_i_add_term1_31_ a_i_add_term1_32_ a_i_add_term1_33_ a_i_add_term1_34_ a_i_add_term1_35_ a_i_add_term1_36_ a_i_add_term1_37_ a_i_add_term1_38_ a_i_add_term1_39_ a_i_add_term1_40_ a_i_add_term1_41_ a_i_add_term1_42_ a_i_add_term1_43_ a_i_add_term1_44_ a_i_add_term1_45_ a_i_add_term1_46_ a_i_add_term1_47_ a_i_add_term1_48_ a_i_add_term1_49_ a_i_add_term1_50_ a_i_add_term1_51_ a_i_add_term1_52_ a_i_add_term1_53_ a_i_add_term1_54_ a_i_add_term1_55_ a_i_add_term1_56_ a_i_add_term1_57_ a_i_add_term1_58_ a_i_add_term1_59_ a_i_add_term1_60_ a_i_add_term2_0_ a_i_add_term2_1_ a_i_add_term2_2_ a_i_add_term2_3_ a_i_add_term2_4_ a_i_add_term2_5_ a_i_add_term2_6_ a_i_add_term2_7_ a_i_add_term2_8_ a_i_add_term2_9_ a_i_add_term2_10_ a_i_add_term2_11_ a_i_add_term2_12_ a_i_add_term2_13_ a_i_add_term2_14_ a_i_add_term2_15_ a_i_add_term2_16_ a_i_add_term2_17_ a_i_add_term2_18_ a_i_add_term2_19_ a_i_add_term2_20_ a_i_add_term2_21_ a_i_add_term2_22_ a_i_add_term2_23_ a_i_add_term2_24_ a_i_add_term2_25_ a_i_add_term2_26_ a_i_add_term2_27_ a_i_add_term2_28_ a_i_add_term2_29_ a_i_add_term2_30_ a_i_add_term2_31_ a_i_add_term2_32_ a_i_add_term2_33_ a_i_add_term2_34_ a_i_add_term2_35_ a_i_add_term2_36_ a_i_add_term2_37_ a_i_add_term2_38_ a_i_add_term2_39_ a_i_add_term2_40_ a_i_add_term2_41_ a_i_add_term2_42_ a_i_add_term2_43_ a_i_add_term2_44_ a_i_add_term2_45_ a_i_add_term2_46_ a_i_add_term2_47_ a_i_add_term2_48_ a_i_add_term2_49_ a_i_add_term2_50_ a_i_add_term2_51_ a_i_add_term2_52_ a_i_add_term2_53_ a_i_add_term2_54_ a_i_add_term2_55_ a_i_add_term2_56_ a_i_add_term2_57_ a_i_add_term2_58_ a_i_add_term2_59_ a_i_add_term2_60_ a_sum_0_ a_sum_1_ a_sum_2_ a_sum_3_ a_sum_4_ a_sum_5_ a_sum_6_ a_sum_7_ a_sum_8_ a_sum_9_ a_sum_10_ a_sum_11_ a_sum_12_ a_sum_13_ a_sum_14_ a_sum_15_ a_sum_16_ a_sum_17_ a_sum_18_ a_sum_19_ a_sum_20_ a_sum_21_ a_sum_22_ a_sum_23_ a_sum_24_ a_sum_25_ a_sum_26_ a_sum_27_ a_sum_28_ a_sum_29_ a_sum_30_ a_sum_31_ a_sum_32_ a_sum_33_ a_sum_34_ a_sum_35_ a_sum_36_ a_sum_37_ a_sum_38_ a_sum_39_ a_sum_40_ a_sum_41_ a_sum_42_ a_sum_43_ a_sum_44_ a_sum_45_ a_sum_46_ a_sum_47_ a_sum_48_ a_sum_49_ a_sum_50_ a_sum_51_ a_sum_52_ a_sum_53_ a_sum_54_ a_sum_55_ a_sum_56_ a_sum_57_ a_sum_58_ a_sum_59_ a_sum_60_ a_cout
AAND2X2_1 [i_add_term2_16_ i_add_term1_16_] _223_ d_lut_AND2X2
AOAI21X1_1 [_222_ _223_ w_cout_4_] _224_ d_lut_OAI21X1
ANAND2X1_1 [_224_ _228_] _0__16_ d_lut_NAND2X1
AOAI21X1_2 [_225_ _222_ _227_] _14__1_ d_lut_OAI21X1
AINVX1_1 [_14__3_] _232_ d_lut_INVX1
AOR2X2_1 [i_add_term2_19_ i_add_term1_19_] _233_ d_lut_OR2X2
ANAND2X1_2 [i_add_term2_19_ i_add_term1_19_] _234_ d_lut_NAND2X1
ANAND3X1_1 [_232_ _234_ _233_] _235_ d_lut_NAND3X1
ANOR2X1_1 [i_add_term2_19_ i_add_term1_19_] _229_ d_lut_NOR2X1
AAND2X2_2 [i_add_term2_19_ i_add_term1_19_] _230_ d_lut_AND2X2
AOAI21X1_3 [_229_ _230_ _14__3_] _231_ d_lut_OAI21X1
ANAND2X1_3 [_231_ _235_] _0__19_ d_lut_NAND2X1
AOAI21X1_4 [_232_ _229_ _234_] _13_ d_lut_OAI21X1
AINVX1_2 [_14__1_] _239_ d_lut_INVX1
AOR2X2_2 [i_add_term2_17_ i_add_term1_17_] _240_ d_lut_OR2X2
ANAND2X1_4 [i_add_term2_17_ i_add_term1_17_] _241_ d_lut_NAND2X1
ANAND3X1_2 [_239_ _241_ _240_] _242_ d_lut_NAND3X1
ANOR2X1_2 [i_add_term2_17_ i_add_term1_17_] _236_ d_lut_NOR2X1
AAND2X2_3 [i_add_term2_17_ i_add_term1_17_] _237_ d_lut_AND2X2
AOAI21X1_5 [_236_ _237_ _14__1_] _238_ d_lut_OAI21X1
ANAND2X1_5 [_238_ _242_] _0__17_ d_lut_NAND2X1
AOAI21X1_6 [_239_ _236_ _241_] _14__2_ d_lut_OAI21X1
AINVX1_3 [_14__2_] _246_ d_lut_INVX1
AOR2X2_3 [i_add_term2_18_ i_add_term1_18_] _247_ d_lut_OR2X2
ANAND2X1_6 [i_add_term2_18_ i_add_term1_18_] _248_ d_lut_NAND2X1
ANAND3X1_3 [_246_ _248_ _247_] _249_ d_lut_NAND3X1
ANOR2X1_3 [i_add_term2_18_ i_add_term1_18_] _243_ d_lut_NOR2X1
AAND2X2_4 [i_add_term2_18_ i_add_term1_18_] _244_ d_lut_AND2X2
AOAI21X1_7 [_243_ _244_ _14__2_] _245_ d_lut_OAI21X1
ANAND2X1_7 [_245_ _249_] _0__18_ d_lut_NAND2X1
AOAI21X1_8 [_246_ _243_ _248_] _14__3_ d_lut_OAI21X1
AINVX1_4 [i_add_term1_16_] _250_ d_lut_INVX1
ANOR2X1_4 [i_add_term2_16_ _250_] _251_ d_lut_NOR2X1
AINVX1_5 [i_add_term2_16_] _252_ d_lut_INVX1
ANOR2X1_5 [i_add_term1_16_ _252_] _253_ d_lut_NOR2X1
AINVX1_6 [i_add_term1_17_] _254_ d_lut_INVX1
ANOR2X1_6 [i_add_term2_17_ _254_] _255_ d_lut_NOR2X1
AINVX1_7 [i_add_term2_17_] _256_ d_lut_INVX1
ANOR2X1_7 [i_add_term1_17_ _256_] _257_ d_lut_NOR2X1
AOAI22X1_1 [_251_ _253_ _255_ _257_] _258_ d_lut_OAI22X1
ANOR2X1_8 [i_add_term2_19_ i_add_term1_19_] _259_ d_lut_NOR2X1
AAND2X2_5 [i_add_term2_19_ i_add_term1_19_] _260_ d_lut_AND2X2
ANOR2X1_9 [_259_ _260_] _261_ d_lut_NOR2X1
AXOR2X1_1 [i_add_term2_18_ i_add_term1_18_] _262_ d_lut_XOR2X1
ANAND2X1_8 [_261_ _262_] _263_ d_lut_NAND2X1
ANOR2X1_10 [_258_ _263_] _15_ d_lut_NOR2X1
AINVX1_8 [_13_] _264_ d_lut_INVX1
ANAND2X1_9 [gnd _15_] _265_ d_lut_NAND2X1
AOAI21X1_9 [_15_ _264_ _265_] w_cout_5_ d_lut_OAI21X1
AINVX1_9 [w_cout_5_] _269_ d_lut_INVX1
AOR2X2_4 [i_add_term2_20_ i_add_term1_20_] _270_ d_lut_OR2X2
ANAND2X1_10 [i_add_term2_20_ i_add_term1_20_] _271_ d_lut_NAND2X1
ANAND3X1_4 [_269_ _271_ _270_] _272_ d_lut_NAND3X1
ANOR2X1_11 [i_add_term2_20_ i_add_term1_20_] _266_ d_lut_NOR2X1
AAND2X2_6 [i_add_term2_20_ i_add_term1_20_] _267_ d_lut_AND2X2
AOAI21X1_10 [_266_ _267_ w_cout_5_] _268_ d_lut_OAI21X1
ANAND2X1_11 [_268_ _272_] _0__20_ d_lut_NAND2X1
AOAI21X1_11 [_269_ _266_ _271_] _17__1_ d_lut_OAI21X1
AINVX1_10 [_17__3_] _276_ d_lut_INVX1
AOR2X2_5 [i_add_term2_23_ i_add_term1_23_] _277_ d_lut_OR2X2
ANAND2X1_12 [i_add_term2_23_ i_add_term1_23_] _278_ d_lut_NAND2X1
ANAND3X1_5 [_276_ _278_ _277_] _279_ d_lut_NAND3X1
ANOR2X1_12 [i_add_term2_23_ i_add_term1_23_] _273_ d_lut_NOR2X1
AAND2X2_7 [i_add_term2_23_ i_add_term1_23_] _274_ d_lut_AND2X2
AOAI21X1_12 [_273_ _274_ _17__3_] _275_ d_lut_OAI21X1
ANAND2X1_13 [_275_ _279_] _0__23_ d_lut_NAND2X1
AOAI21X1_13 [_276_ _273_ _278_] _16_ d_lut_OAI21X1
AINVX1_11 [_17__1_] _283_ d_lut_INVX1
AOR2X2_6 [i_add_term2_21_ i_add_term1_21_] _284_ d_lut_OR2X2
ANAND2X1_14 [i_add_term2_21_ i_add_term1_21_] _285_ d_lut_NAND2X1
ANAND3X1_6 [_283_ _285_ _284_] _286_ d_lut_NAND3X1
ANOR2X1_13 [i_add_term2_21_ i_add_term1_21_] _280_ d_lut_NOR2X1
AAND2X2_8 [i_add_term2_21_ i_add_term1_21_] _281_ d_lut_AND2X2
AOAI21X1_14 [_280_ _281_ _17__1_] _282_ d_lut_OAI21X1
ANAND2X1_15 [_282_ _286_] _0__21_ d_lut_NAND2X1
AOAI21X1_15 [_283_ _280_ _285_] _17__2_ d_lut_OAI21X1
AINVX1_12 [_17__2_] _290_ d_lut_INVX1
AOR2X2_7 [i_add_term2_22_ i_add_term1_22_] _291_ d_lut_OR2X2
ANAND2X1_16 [i_add_term2_22_ i_add_term1_22_] _292_ d_lut_NAND2X1
ANAND3X1_7 [_290_ _292_ _291_] _293_ d_lut_NAND3X1
ANOR2X1_14 [i_add_term2_22_ i_add_term1_22_] _287_ d_lut_NOR2X1
AAND2X2_9 [i_add_term2_22_ i_add_term1_22_] _288_ d_lut_AND2X2
AOAI21X1_16 [_287_ _288_ _17__2_] _289_ d_lut_OAI21X1
ANAND2X1_17 [_289_ _293_] _0__22_ d_lut_NAND2X1
AOAI21X1_17 [_290_ _287_ _292_] _17__3_ d_lut_OAI21X1
AINVX1_13 [i_add_term1_20_] _294_ d_lut_INVX1
ANOR2X1_15 [i_add_term2_20_ _294_] _295_ d_lut_NOR2X1
AINVX1_14 [i_add_term2_20_] _296_ d_lut_INVX1
ANOR2X1_16 [i_add_term1_20_ _296_] _297_ d_lut_NOR2X1
AINVX1_15 [i_add_term1_21_] _298_ d_lut_INVX1
ANOR2X1_17 [i_add_term2_21_ _298_] _299_ d_lut_NOR2X1
AINVX1_16 [i_add_term2_21_] _300_ d_lut_INVX1
ANOR2X1_18 [i_add_term1_21_ _300_] _301_ d_lut_NOR2X1
AOAI22X1_2 [_295_ _297_ _299_ _301_] _302_ d_lut_OAI22X1
ANOR2X1_19 [i_add_term2_23_ i_add_term1_23_] _303_ d_lut_NOR2X1
AAND2X2_10 [i_add_term2_23_ i_add_term1_23_] _304_ d_lut_AND2X2
ANOR2X1_20 [_303_ _304_] _305_ d_lut_NOR2X1
AXOR2X1_2 [i_add_term2_22_ i_add_term1_22_] _306_ d_lut_XOR2X1
ANAND2X1_18 [_305_ _306_] _307_ d_lut_NAND2X1
ANOR2X1_21 [_302_ _307_] _18_ d_lut_NOR2X1
AINVX1_17 [_16_] _308_ d_lut_INVX1
ANAND2X1_19 [gnd _18_] _309_ d_lut_NAND2X1
AOAI21X1_18 [_18_ _308_ _309_] w_cout_6_ d_lut_OAI21X1
AINVX1_18 [w_cout_6_] _313_ d_lut_INVX1
AOR2X2_8 [i_add_term2_24_ i_add_term1_24_] _314_ d_lut_OR2X2
ANAND2X1_20 [i_add_term2_24_ i_add_term1_24_] _315_ d_lut_NAND2X1
ANAND3X1_8 [_313_ _315_ _314_] _316_ d_lut_NAND3X1
ANOR2X1_22 [i_add_term2_24_ i_add_term1_24_] _310_ d_lut_NOR2X1
AAND2X2_11 [i_add_term2_24_ i_add_term1_24_] _311_ d_lut_AND2X2
AOAI21X1_19 [_310_ _311_ w_cout_6_] _312_ d_lut_OAI21X1
ANAND2X1_21 [_312_ _316_] _0__24_ d_lut_NAND2X1
AOAI21X1_20 [_313_ _310_ _315_] _20__1_ d_lut_OAI21X1
AINVX1_19 [_20__3_] _320_ d_lut_INVX1
AOR2X2_9 [i_add_term2_27_ i_add_term1_27_] _321_ d_lut_OR2X2
ANAND2X1_22 [i_add_term2_27_ i_add_term1_27_] _322_ d_lut_NAND2X1
ANAND3X1_9 [_320_ _322_ _321_] _323_ d_lut_NAND3X1
ANOR2X1_23 [i_add_term2_27_ i_add_term1_27_] _317_ d_lut_NOR2X1
AAND2X2_12 [i_add_term2_27_ i_add_term1_27_] _318_ d_lut_AND2X2
AOAI21X1_21 [_317_ _318_ _20__3_] _319_ d_lut_OAI21X1
ANAND2X1_23 [_319_ _323_] _0__27_ d_lut_NAND2X1
AOAI21X1_22 [_320_ _317_ _322_] _19_ d_lut_OAI21X1
AINVX1_20 [_20__1_] _327_ d_lut_INVX1
AOR2X2_10 [i_add_term2_25_ i_add_term1_25_] _328_ d_lut_OR2X2
ANAND2X1_24 [i_add_term2_25_ i_add_term1_25_] _329_ d_lut_NAND2X1
ANAND3X1_10 [_327_ _329_ _328_] _330_ d_lut_NAND3X1
ANOR2X1_24 [i_add_term2_25_ i_add_term1_25_] _324_ d_lut_NOR2X1
AAND2X2_13 [i_add_term2_25_ i_add_term1_25_] _325_ d_lut_AND2X2
AOAI21X1_23 [_324_ _325_ _20__1_] _326_ d_lut_OAI21X1
ANAND2X1_25 [_326_ _330_] _0__25_ d_lut_NAND2X1
AOAI21X1_24 [_327_ _324_ _329_] _20__2_ d_lut_OAI21X1
AINVX1_21 [_20__2_] _334_ d_lut_INVX1
AOR2X2_11 [i_add_term2_26_ i_add_term1_26_] _335_ d_lut_OR2X2
ANAND2X1_26 [i_add_term2_26_ i_add_term1_26_] _336_ d_lut_NAND2X1
ANAND3X1_11 [_334_ _336_ _335_] _337_ d_lut_NAND3X1
ANOR2X1_25 [i_add_term2_26_ i_add_term1_26_] _331_ d_lut_NOR2X1
AAND2X2_14 [i_add_term2_26_ i_add_term1_26_] _332_ d_lut_AND2X2
AOAI21X1_25 [_331_ _332_ _20__2_] _333_ d_lut_OAI21X1
ANAND2X1_27 [_333_ _337_] _0__26_ d_lut_NAND2X1
AOAI21X1_26 [_334_ _331_ _336_] _20__3_ d_lut_OAI21X1
AINVX1_22 [i_add_term1_24_] _338_ d_lut_INVX1
ANOR2X1_26 [i_add_term2_24_ _338_] _339_ d_lut_NOR2X1
AINVX1_23 [i_add_term2_24_] _340_ d_lut_INVX1
ANOR2X1_27 [i_add_term1_24_ _340_] _341_ d_lut_NOR2X1
AINVX1_24 [i_add_term1_25_] _342_ d_lut_INVX1
ANOR2X1_28 [i_add_term2_25_ _342_] _343_ d_lut_NOR2X1
AINVX1_25 [i_add_term2_25_] _344_ d_lut_INVX1
ANOR2X1_29 [i_add_term1_25_ _344_] _345_ d_lut_NOR2X1
AOAI22X1_3 [_339_ _341_ _343_ _345_] _346_ d_lut_OAI22X1
ANOR2X1_30 [i_add_term2_27_ i_add_term1_27_] _347_ d_lut_NOR2X1
AAND2X2_15 [i_add_term2_27_ i_add_term1_27_] _348_ d_lut_AND2X2
ANOR2X1_31 [_347_ _348_] _349_ d_lut_NOR2X1
AXOR2X1_3 [i_add_term2_26_ i_add_term1_26_] _350_ d_lut_XOR2X1
ANAND2X1_28 [_349_ _350_] _351_ d_lut_NAND2X1
ANOR2X1_32 [_346_ _351_] _21_ d_lut_NOR2X1
AINVX1_26 [_19_] _352_ d_lut_INVX1
ANAND2X1_29 [gnd _21_] _353_ d_lut_NAND2X1
AOAI21X1_27 [_21_ _352_ _353_] w_cout_7_ d_lut_OAI21X1
AINVX1_27 [w_cout_7_] _357_ d_lut_INVX1
AOR2X2_12 [i_add_term2_28_ i_add_term1_28_] _358_ d_lut_OR2X2
ANAND2X1_30 [i_add_term2_28_ i_add_term1_28_] _359_ d_lut_NAND2X1
ANAND3X1_12 [_357_ _359_ _358_] _360_ d_lut_NAND3X1
ANOR2X1_33 [i_add_term2_28_ i_add_term1_28_] _354_ d_lut_NOR2X1
AAND2X2_16 [i_add_term2_28_ i_add_term1_28_] _355_ d_lut_AND2X2
AOAI21X1_28 [_354_ _355_ w_cout_7_] _356_ d_lut_OAI21X1
ANAND2X1_31 [_356_ _360_] _0__28_ d_lut_NAND2X1
AOAI21X1_29 [_357_ _354_ _359_] _23__1_ d_lut_OAI21X1
AINVX1_28 [_23__3_] _364_ d_lut_INVX1
AOR2X2_13 [i_add_term2_31_ i_add_term1_31_] _365_ d_lut_OR2X2
ANAND2X1_32 [i_add_term2_31_ i_add_term1_31_] _366_ d_lut_NAND2X1
ANAND3X1_13 [_364_ _366_ _365_] _367_ d_lut_NAND3X1
ANOR2X1_34 [i_add_term2_31_ i_add_term1_31_] _361_ d_lut_NOR2X1
AAND2X2_17 [i_add_term2_31_ i_add_term1_31_] _362_ d_lut_AND2X2
AOAI21X1_30 [_361_ _362_ _23__3_] _363_ d_lut_OAI21X1
ANAND2X1_33 [_363_ _367_] _0__31_ d_lut_NAND2X1
AOAI21X1_31 [_364_ _361_ _366_] _22_ d_lut_OAI21X1
AINVX1_29 [_23__1_] _371_ d_lut_INVX1
AOR2X2_14 [i_add_term2_29_ i_add_term1_29_] _372_ d_lut_OR2X2
ANAND2X1_34 [i_add_term2_29_ i_add_term1_29_] _373_ d_lut_NAND2X1
ANAND3X1_14 [_371_ _373_ _372_] _374_ d_lut_NAND3X1
ANOR2X1_35 [i_add_term2_29_ i_add_term1_29_] _368_ d_lut_NOR2X1
AAND2X2_18 [i_add_term2_29_ i_add_term1_29_] _369_ d_lut_AND2X2
AOAI21X1_32 [_368_ _369_ _23__1_] _370_ d_lut_OAI21X1
ANAND2X1_35 [_370_ _374_] _0__29_ d_lut_NAND2X1
AOAI21X1_33 [_371_ _368_ _373_] _23__2_ d_lut_OAI21X1
AINVX1_30 [_23__2_] _378_ d_lut_INVX1
AOR2X2_15 [i_add_term2_30_ i_add_term1_30_] _379_ d_lut_OR2X2
ANAND2X1_36 [i_add_term2_30_ i_add_term1_30_] _380_ d_lut_NAND2X1
ANAND3X1_15 [_378_ _380_ _379_] _381_ d_lut_NAND3X1
ANOR2X1_36 [i_add_term2_30_ i_add_term1_30_] _375_ d_lut_NOR2X1
AAND2X2_19 [i_add_term2_30_ i_add_term1_30_] _376_ d_lut_AND2X2
AOAI21X1_34 [_375_ _376_ _23__2_] _377_ d_lut_OAI21X1
ANAND2X1_37 [_377_ _381_] _0__30_ d_lut_NAND2X1
AOAI21X1_35 [_378_ _375_ _380_] _23__3_ d_lut_OAI21X1
AINVX1_31 [i_add_term1_28_] _382_ d_lut_INVX1
ANOR2X1_37 [i_add_term2_28_ _382_] _383_ d_lut_NOR2X1
AINVX1_32 [i_add_term2_28_] _384_ d_lut_INVX1
ANOR2X1_38 [i_add_term1_28_ _384_] _385_ d_lut_NOR2X1
AINVX1_33 [i_add_term1_29_] _386_ d_lut_INVX1
ANOR2X1_39 [i_add_term2_29_ _386_] _387_ d_lut_NOR2X1
AINVX1_34 [i_add_term2_29_] _388_ d_lut_INVX1
ANOR2X1_40 [i_add_term1_29_ _388_] _389_ d_lut_NOR2X1
AOAI22X1_4 [_383_ _385_ _387_ _389_] _390_ d_lut_OAI22X1
ANOR2X1_41 [i_add_term2_31_ i_add_term1_31_] _391_ d_lut_NOR2X1
AAND2X2_20 [i_add_term2_31_ i_add_term1_31_] _392_ d_lut_AND2X2
ANOR2X1_42 [_391_ _392_] _393_ d_lut_NOR2X1
AXOR2X1_4 [i_add_term2_30_ i_add_term1_30_] _394_ d_lut_XOR2X1
ANAND2X1_38 [_393_ _394_] _395_ d_lut_NAND2X1
ANOR2X1_43 [_390_ _395_] _24_ d_lut_NOR2X1
AINVX1_35 [_22_] _396_ d_lut_INVX1
ANAND2X1_39 [gnd _24_] _397_ d_lut_NAND2X1
AOAI21X1_36 [_24_ _396_ _397_] w_cout_8_ d_lut_OAI21X1
AINVX1_36 [w_cout_8_] _401_ d_lut_INVX1
AOR2X2_16 [i_add_term2_32_ i_add_term1_32_] _402_ d_lut_OR2X2
ANAND2X1_40 [i_add_term2_32_ i_add_term1_32_] _403_ d_lut_NAND2X1
ANAND3X1_16 [_401_ _403_ _402_] _404_ d_lut_NAND3X1
ANOR2X1_44 [i_add_term2_32_ i_add_term1_32_] _398_ d_lut_NOR2X1
AAND2X2_21 [i_add_term2_32_ i_add_term1_32_] _399_ d_lut_AND2X2
AOAI21X1_37 [_398_ _399_ w_cout_8_] _400_ d_lut_OAI21X1
ANAND2X1_41 [_400_ _404_] _0__32_ d_lut_NAND2X1
AOAI21X1_38 [_401_ _398_ _403_] _26__1_ d_lut_OAI21X1
AINVX1_37 [_26__3_] _408_ d_lut_INVX1
AOR2X2_17 [i_add_term2_35_ i_add_term1_35_] _409_ d_lut_OR2X2
ANAND2X1_42 [i_add_term2_35_ i_add_term1_35_] _410_ d_lut_NAND2X1
ANAND3X1_17 [_408_ _410_ _409_] _411_ d_lut_NAND3X1
ANOR2X1_45 [i_add_term2_35_ i_add_term1_35_] _405_ d_lut_NOR2X1
AAND2X2_22 [i_add_term2_35_ i_add_term1_35_] _406_ d_lut_AND2X2
AOAI21X1_39 [_405_ _406_ _26__3_] _407_ d_lut_OAI21X1
ANAND2X1_43 [_407_ _411_] _0__35_ d_lut_NAND2X1
AOAI21X1_40 [_408_ _405_ _410_] _25_ d_lut_OAI21X1
AINVX1_38 [_26__1_] _415_ d_lut_INVX1
AOR2X2_18 [i_add_term2_33_ i_add_term1_33_] _416_ d_lut_OR2X2
ANAND2X1_44 [i_add_term2_33_ i_add_term1_33_] _417_ d_lut_NAND2X1
ANAND3X1_18 [_415_ _417_ _416_] _418_ d_lut_NAND3X1
ANOR2X1_46 [i_add_term2_33_ i_add_term1_33_] _412_ d_lut_NOR2X1
AAND2X2_23 [i_add_term2_33_ i_add_term1_33_] _413_ d_lut_AND2X2
AOAI21X1_41 [_412_ _413_ _26__1_] _414_ d_lut_OAI21X1
ANAND2X1_45 [_414_ _418_] _0__33_ d_lut_NAND2X1
AOAI21X1_42 [_415_ _412_ _417_] _26__2_ d_lut_OAI21X1
AINVX1_39 [_26__2_] _422_ d_lut_INVX1
AOR2X2_19 [i_add_term2_34_ i_add_term1_34_] _423_ d_lut_OR2X2
ANAND2X1_46 [i_add_term2_34_ i_add_term1_34_] _424_ d_lut_NAND2X1
ANAND3X1_19 [_422_ _424_ _423_] _425_ d_lut_NAND3X1
ANOR2X1_47 [i_add_term2_34_ i_add_term1_34_] _419_ d_lut_NOR2X1
AAND2X2_24 [i_add_term2_34_ i_add_term1_34_] _420_ d_lut_AND2X2
AOAI21X1_43 [_419_ _420_ _26__2_] _421_ d_lut_OAI21X1
ANAND2X1_47 [_421_ _425_] _0__34_ d_lut_NAND2X1
AOAI21X1_44 [_422_ _419_ _424_] _26__3_ d_lut_OAI21X1
AINVX1_40 [i_add_term1_32_] _426_ d_lut_INVX1
ANOR2X1_48 [i_add_term2_32_ _426_] _427_ d_lut_NOR2X1
AINVX1_41 [i_add_term2_32_] _428_ d_lut_INVX1
ANOR2X1_49 [i_add_term1_32_ _428_] _429_ d_lut_NOR2X1
AINVX1_42 [i_add_term1_33_] _430_ d_lut_INVX1
ANOR2X1_50 [i_add_term2_33_ _430_] _431_ d_lut_NOR2X1
AINVX1_43 [i_add_term2_33_] _432_ d_lut_INVX1
ANOR2X1_51 [i_add_term1_33_ _432_] _433_ d_lut_NOR2X1
AOAI22X1_5 [_427_ _429_ _431_ _433_] _434_ d_lut_OAI22X1
ANOR2X1_52 [i_add_term2_35_ i_add_term1_35_] _435_ d_lut_NOR2X1
AAND2X2_25 [i_add_term2_35_ i_add_term1_35_] _436_ d_lut_AND2X2
ANOR2X1_53 [_435_ _436_] _437_ d_lut_NOR2X1
AXOR2X1_5 [i_add_term2_34_ i_add_term1_34_] _438_ d_lut_XOR2X1
ANAND2X1_48 [_437_ _438_] _439_ d_lut_NAND2X1
ANOR2X1_54 [_434_ _439_] _27_ d_lut_NOR2X1
AINVX1_44 [_25_] _440_ d_lut_INVX1
ANAND2X1_49 [gnd _27_] _441_ d_lut_NAND2X1
AOAI21X1_45 [_27_ _440_ _441_] w_cout_9_ d_lut_OAI21X1
AINVX1_45 [w_cout_9_] _445_ d_lut_INVX1
AOR2X2_20 [i_add_term2_36_ i_add_term1_36_] _446_ d_lut_OR2X2
ANAND2X1_50 [i_add_term2_36_ i_add_term1_36_] _447_ d_lut_NAND2X1
ANAND3X1_20 [_445_ _447_ _446_] _448_ d_lut_NAND3X1
ANOR2X1_55 [i_add_term2_36_ i_add_term1_36_] _442_ d_lut_NOR2X1
AAND2X2_26 [i_add_term2_36_ i_add_term1_36_] _443_ d_lut_AND2X2
AOAI21X1_46 [_442_ _443_ w_cout_9_] _444_ d_lut_OAI21X1
ANAND2X1_51 [_444_ _448_] _0__36_ d_lut_NAND2X1
AOAI21X1_47 [_445_ _442_ _447_] _29__1_ d_lut_OAI21X1
AINVX1_46 [_29__3_] _452_ d_lut_INVX1
AOR2X2_21 [i_add_term2_39_ i_add_term1_39_] _453_ d_lut_OR2X2
ANAND2X1_52 [i_add_term2_39_ i_add_term1_39_] _454_ d_lut_NAND2X1
ANAND3X1_21 [_452_ _454_ _453_] _455_ d_lut_NAND3X1
ANOR2X1_56 [i_add_term2_39_ i_add_term1_39_] _449_ d_lut_NOR2X1
AAND2X2_27 [i_add_term2_39_ i_add_term1_39_] _450_ d_lut_AND2X2
AOAI21X1_48 [_449_ _450_ _29__3_] _451_ d_lut_OAI21X1
ANAND2X1_53 [_451_ _455_] _0__39_ d_lut_NAND2X1
AOAI21X1_49 [_452_ _449_ _454_] _28_ d_lut_OAI21X1
AINVX1_47 [_29__1_] _459_ d_lut_INVX1
AOR2X2_22 [i_add_term2_37_ i_add_term1_37_] _460_ d_lut_OR2X2
ANAND2X1_54 [i_add_term2_37_ i_add_term1_37_] _461_ d_lut_NAND2X1
ANAND3X1_22 [_459_ _461_ _460_] _462_ d_lut_NAND3X1
ANOR2X1_57 [i_add_term2_37_ i_add_term1_37_] _456_ d_lut_NOR2X1
AAND2X2_28 [i_add_term2_37_ i_add_term1_37_] _457_ d_lut_AND2X2
AOAI21X1_50 [_456_ _457_ _29__1_] _458_ d_lut_OAI21X1
ANAND2X1_55 [_458_ _462_] _0__37_ d_lut_NAND2X1
AOAI21X1_51 [_459_ _456_ _461_] _29__2_ d_lut_OAI21X1
AINVX1_48 [_29__2_] _466_ d_lut_INVX1
AOR2X2_23 [i_add_term2_38_ i_add_term1_38_] _467_ d_lut_OR2X2
ANAND2X1_56 [i_add_term2_38_ i_add_term1_38_] _468_ d_lut_NAND2X1
ANAND3X1_23 [_466_ _468_ _467_] _469_ d_lut_NAND3X1
ANOR2X1_58 [i_add_term2_38_ i_add_term1_38_] _463_ d_lut_NOR2X1
AAND2X2_29 [i_add_term2_38_ i_add_term1_38_] _464_ d_lut_AND2X2
AOAI21X1_52 [_463_ _464_ _29__2_] _465_ d_lut_OAI21X1
ANAND2X1_57 [_465_ _469_] _0__38_ d_lut_NAND2X1
AOAI21X1_53 [_466_ _463_ _468_] _29__3_ d_lut_OAI21X1
AINVX1_49 [i_add_term1_36_] _470_ d_lut_INVX1
ANOR2X1_59 [i_add_term2_36_ _470_] _471_ d_lut_NOR2X1
AINVX1_50 [i_add_term2_36_] _472_ d_lut_INVX1
ANOR2X1_60 [i_add_term1_36_ _472_] _473_ d_lut_NOR2X1
AINVX1_51 [i_add_term1_37_] _474_ d_lut_INVX1
ANOR2X1_61 [i_add_term2_37_ _474_] _475_ d_lut_NOR2X1
AINVX1_52 [i_add_term2_37_] _476_ d_lut_INVX1
ANOR2X1_62 [i_add_term1_37_ _476_] _477_ d_lut_NOR2X1
AOAI22X1_6 [_471_ _473_ _475_ _477_] _478_ d_lut_OAI22X1
ANOR2X1_63 [i_add_term2_39_ i_add_term1_39_] _479_ d_lut_NOR2X1
AAND2X2_30 [i_add_term2_39_ i_add_term1_39_] _480_ d_lut_AND2X2
ANOR2X1_64 [_479_ _480_] _481_ d_lut_NOR2X1
AXOR2X1_6 [i_add_term2_38_ i_add_term1_38_] _482_ d_lut_XOR2X1
ANAND2X1_58 [_481_ _482_] _483_ d_lut_NAND2X1
ANOR2X1_65 [_478_ _483_] _30_ d_lut_NOR2X1
AINVX1_53 [_28_] _484_ d_lut_INVX1
ANAND2X1_59 [gnd _30_] _485_ d_lut_NAND2X1
AOAI21X1_54 [_30_ _484_ _485_] w_cout_10_ d_lut_OAI21X1
AINVX1_54 [w_cout_10_] _489_ d_lut_INVX1
AOR2X2_24 [i_add_term2_40_ i_add_term1_40_] _490_ d_lut_OR2X2
ANAND2X1_60 [i_add_term2_40_ i_add_term1_40_] _491_ d_lut_NAND2X1
ANAND3X1_24 [_489_ _491_ _490_] _492_ d_lut_NAND3X1
ANOR2X1_66 [i_add_term2_40_ i_add_term1_40_] _486_ d_lut_NOR2X1
AAND2X2_31 [i_add_term2_40_ i_add_term1_40_] _487_ d_lut_AND2X2
AOAI21X1_55 [_486_ _487_ w_cout_10_] _488_ d_lut_OAI21X1
ANAND2X1_61 [_488_ _492_] _0__40_ d_lut_NAND2X1
AOAI21X1_56 [_489_ _486_ _491_] _32__1_ d_lut_OAI21X1
AINVX1_55 [_32__3_] _496_ d_lut_INVX1
AOR2X2_25 [i_add_term2_43_ i_add_term1_43_] _497_ d_lut_OR2X2
ANAND2X1_62 [i_add_term2_43_ i_add_term1_43_] _498_ d_lut_NAND2X1
ANAND3X1_25 [_496_ _498_ _497_] _499_ d_lut_NAND3X1
ANOR2X1_67 [i_add_term2_43_ i_add_term1_43_] _493_ d_lut_NOR2X1
AAND2X2_32 [i_add_term2_43_ i_add_term1_43_] _494_ d_lut_AND2X2
AOAI21X1_57 [_493_ _494_ _32__3_] _495_ d_lut_OAI21X1
ANAND2X1_63 [_495_ _499_] _0__43_ d_lut_NAND2X1
AOAI21X1_58 [_496_ _493_ _498_] _31_ d_lut_OAI21X1
AINVX1_56 [_32__1_] _503_ d_lut_INVX1
AOR2X2_26 [i_add_term2_41_ i_add_term1_41_] _504_ d_lut_OR2X2
ANAND2X1_64 [i_add_term2_41_ i_add_term1_41_] _505_ d_lut_NAND2X1
ANAND3X1_26 [_503_ _505_ _504_] _506_ d_lut_NAND3X1
ANOR2X1_68 [i_add_term2_41_ i_add_term1_41_] _500_ d_lut_NOR2X1
AAND2X2_33 [i_add_term2_41_ i_add_term1_41_] _501_ d_lut_AND2X2
AOAI21X1_59 [_500_ _501_ _32__1_] _502_ d_lut_OAI21X1
ANAND2X1_65 [_502_ _506_] _0__41_ d_lut_NAND2X1
AOAI21X1_60 [_503_ _500_ _505_] _32__2_ d_lut_OAI21X1
AINVX1_57 [_32__2_] _510_ d_lut_INVX1
AOR2X2_27 [i_add_term2_42_ i_add_term1_42_] _511_ d_lut_OR2X2
ANAND2X1_66 [i_add_term2_42_ i_add_term1_42_] _512_ d_lut_NAND2X1
ANAND3X1_27 [_510_ _512_ _511_] _513_ d_lut_NAND3X1
ANOR2X1_69 [i_add_term2_42_ i_add_term1_42_] _507_ d_lut_NOR2X1
AAND2X2_34 [i_add_term2_42_ i_add_term1_42_] _508_ d_lut_AND2X2
AOAI21X1_61 [_507_ _508_ _32__2_] _509_ d_lut_OAI21X1
ANAND2X1_67 [_509_ _513_] _0__42_ d_lut_NAND2X1
AOAI21X1_62 [_510_ _507_ _512_] _32__3_ d_lut_OAI21X1
AINVX1_58 [i_add_term1_40_] _514_ d_lut_INVX1
ANOR2X1_70 [i_add_term2_40_ _514_] _515_ d_lut_NOR2X1
AINVX1_59 [i_add_term2_40_] _516_ d_lut_INVX1
ANOR2X1_71 [i_add_term1_40_ _516_] _517_ d_lut_NOR2X1
AINVX1_60 [i_add_term1_41_] _518_ d_lut_INVX1
ANOR2X1_72 [i_add_term2_41_ _518_] _519_ d_lut_NOR2X1
AINVX1_61 [i_add_term2_41_] _520_ d_lut_INVX1
ANOR2X1_73 [i_add_term1_41_ _520_] _521_ d_lut_NOR2X1
AOAI22X1_7 [_515_ _517_ _519_ _521_] _522_ d_lut_OAI22X1
ANOR2X1_74 [i_add_term2_43_ i_add_term1_43_] _523_ d_lut_NOR2X1
AAND2X2_35 [i_add_term2_43_ i_add_term1_43_] _524_ d_lut_AND2X2
ANOR2X1_75 [_523_ _524_] _525_ d_lut_NOR2X1
AXOR2X1_7 [i_add_term2_42_ i_add_term1_42_] _526_ d_lut_XOR2X1
ANAND2X1_68 [_525_ _526_] _527_ d_lut_NAND2X1
ANOR2X1_76 [_522_ _527_] _33_ d_lut_NOR2X1
AINVX1_62 [_31_] _528_ d_lut_INVX1
ANAND2X1_69 [gnd _33_] _529_ d_lut_NAND2X1
AOAI21X1_63 [_33_ _528_ _529_] w_cout_11_ d_lut_OAI21X1
AINVX1_63 [w_cout_11_] _533_ d_lut_INVX1
AOR2X2_28 [i_add_term2_44_ i_add_term1_44_] _534_ d_lut_OR2X2
ANAND2X1_70 [i_add_term2_44_ i_add_term1_44_] _535_ d_lut_NAND2X1
ANAND3X1_28 [_533_ _535_ _534_] _536_ d_lut_NAND3X1
ANOR2X1_77 [i_add_term2_44_ i_add_term1_44_] _530_ d_lut_NOR2X1
AAND2X2_36 [i_add_term2_44_ i_add_term1_44_] _531_ d_lut_AND2X2
AOAI21X1_64 [_530_ _531_ w_cout_11_] _532_ d_lut_OAI21X1
ANAND2X1_71 [_532_ _536_] _0__44_ d_lut_NAND2X1
AOAI21X1_65 [_533_ _530_ _535_] _35__1_ d_lut_OAI21X1
AINVX1_64 [_35__3_] _540_ d_lut_INVX1
AOR2X2_29 [i_add_term2_47_ i_add_term1_47_] _541_ d_lut_OR2X2
ANAND2X1_72 [i_add_term2_47_ i_add_term1_47_] _542_ d_lut_NAND2X1
ANAND3X1_29 [_540_ _542_ _541_] _543_ d_lut_NAND3X1
ANOR2X1_78 [i_add_term2_47_ i_add_term1_47_] _537_ d_lut_NOR2X1
AAND2X2_37 [i_add_term2_47_ i_add_term1_47_] _538_ d_lut_AND2X2
AOAI21X1_66 [_537_ _538_ _35__3_] _539_ d_lut_OAI21X1
ANAND2X1_73 [_539_ _543_] _0__47_ d_lut_NAND2X1
AOAI21X1_67 [_540_ _537_ _542_] _34_ d_lut_OAI21X1
AINVX1_65 [_35__1_] _547_ d_lut_INVX1
AOR2X2_30 [i_add_term2_45_ i_add_term1_45_] _548_ d_lut_OR2X2
ANAND2X1_74 [i_add_term2_45_ i_add_term1_45_] _549_ d_lut_NAND2X1
ANAND3X1_30 [_547_ _549_ _548_] _550_ d_lut_NAND3X1
ANOR2X1_79 [i_add_term2_45_ i_add_term1_45_] _544_ d_lut_NOR2X1
AAND2X2_38 [i_add_term2_45_ i_add_term1_45_] _545_ d_lut_AND2X2
AOAI21X1_68 [_544_ _545_ _35__1_] _546_ d_lut_OAI21X1
ANAND2X1_75 [_546_ _550_] _0__45_ d_lut_NAND2X1
AOAI21X1_69 [_547_ _544_ _549_] _35__2_ d_lut_OAI21X1
AINVX1_66 [_35__2_] _554_ d_lut_INVX1
AOR2X2_31 [i_add_term2_46_ i_add_term1_46_] _555_ d_lut_OR2X2
ANAND2X1_76 [i_add_term2_46_ i_add_term1_46_] _556_ d_lut_NAND2X1
ANAND3X1_31 [_554_ _556_ _555_] _557_ d_lut_NAND3X1
ANOR2X1_80 [i_add_term2_46_ i_add_term1_46_] _551_ d_lut_NOR2X1
AAND2X2_39 [i_add_term2_46_ i_add_term1_46_] _552_ d_lut_AND2X2
AOAI21X1_70 [_551_ _552_ _35__2_] _553_ d_lut_OAI21X1
ANAND2X1_77 [_553_ _557_] _0__46_ d_lut_NAND2X1
AOAI21X1_71 [_554_ _551_ _556_] _35__3_ d_lut_OAI21X1
AINVX1_67 [i_add_term1_44_] _558_ d_lut_INVX1
ANOR2X1_81 [i_add_term2_44_ _558_] _559_ d_lut_NOR2X1
AINVX1_68 [i_add_term2_44_] _560_ d_lut_INVX1
ANOR2X1_82 [i_add_term1_44_ _560_] _561_ d_lut_NOR2X1
AINVX1_69 [i_add_term1_45_] _562_ d_lut_INVX1
ANOR2X1_83 [i_add_term2_45_ _562_] _563_ d_lut_NOR2X1
AINVX1_70 [i_add_term2_45_] _564_ d_lut_INVX1
ANOR2X1_84 [i_add_term1_45_ _564_] _565_ d_lut_NOR2X1
AOAI22X1_8 [_559_ _561_ _563_ _565_] _566_ d_lut_OAI22X1
ANOR2X1_85 [i_add_term2_47_ i_add_term1_47_] _567_ d_lut_NOR2X1
AAND2X2_40 [i_add_term2_47_ i_add_term1_47_] _568_ d_lut_AND2X2
ANOR2X1_86 [_567_ _568_] _569_ d_lut_NOR2X1
AXOR2X1_8 [i_add_term2_46_ i_add_term1_46_] _570_ d_lut_XOR2X1
ANAND2X1_78 [_569_ _570_] _571_ d_lut_NAND2X1
ANOR2X1_87 [_566_ _571_] _36_ d_lut_NOR2X1
AINVX1_71 [_34_] _572_ d_lut_INVX1
ANAND2X1_79 [gnd _36_] _573_ d_lut_NAND2X1
AOAI21X1_72 [_36_ _572_ _573_] w_cout_12_ d_lut_OAI21X1
AINVX1_72 [w_cout_12_] _577_ d_lut_INVX1
AOR2X2_32 [i_add_term2_48_ i_add_term1_48_] _578_ d_lut_OR2X2
ANAND2X1_80 [i_add_term2_48_ i_add_term1_48_] _579_ d_lut_NAND2X1
ANAND3X1_32 [_577_ _579_ _578_] _580_ d_lut_NAND3X1
ANOR2X1_88 [i_add_term2_48_ i_add_term1_48_] _574_ d_lut_NOR2X1
AAND2X2_41 [i_add_term2_48_ i_add_term1_48_] _575_ d_lut_AND2X2
AOAI21X1_73 [_574_ _575_ w_cout_12_] _576_ d_lut_OAI21X1
ANAND2X1_81 [_576_ _580_] _0__48_ d_lut_NAND2X1
AOAI21X1_74 [_577_ _574_ _579_] _38__1_ d_lut_OAI21X1
AINVX1_73 [_38__3_] _584_ d_lut_INVX1
AOR2X2_33 [i_add_term2_51_ i_add_term1_51_] _585_ d_lut_OR2X2
ANAND2X1_82 [i_add_term2_51_ i_add_term1_51_] _586_ d_lut_NAND2X1
ANAND3X1_33 [_584_ _586_ _585_] _587_ d_lut_NAND3X1
ANOR2X1_89 [i_add_term2_51_ i_add_term1_51_] _581_ d_lut_NOR2X1
AAND2X2_42 [i_add_term2_51_ i_add_term1_51_] _582_ d_lut_AND2X2
AOAI21X1_75 [_581_ _582_ _38__3_] _583_ d_lut_OAI21X1
ANAND2X1_83 [_583_ _587_] _0__51_ d_lut_NAND2X1
AOAI21X1_76 [_584_ _581_ _586_] _37_ d_lut_OAI21X1
AINVX1_74 [_38__1_] _591_ d_lut_INVX1
AOR2X2_34 [i_add_term2_49_ i_add_term1_49_] _592_ d_lut_OR2X2
ANAND2X1_84 [i_add_term2_49_ i_add_term1_49_] _593_ d_lut_NAND2X1
ANAND3X1_34 [_591_ _593_ _592_] _594_ d_lut_NAND3X1
ANOR2X1_90 [i_add_term2_49_ i_add_term1_49_] _588_ d_lut_NOR2X1
AAND2X2_43 [i_add_term2_49_ i_add_term1_49_] _589_ d_lut_AND2X2
AOAI21X1_77 [_588_ _589_ _38__1_] _590_ d_lut_OAI21X1
ANAND2X1_85 [_590_ _594_] _0__49_ d_lut_NAND2X1
AOAI21X1_78 [_591_ _588_ _593_] _38__2_ d_lut_OAI21X1
AINVX1_75 [_38__2_] _598_ d_lut_INVX1
AOR2X2_35 [i_add_term2_50_ i_add_term1_50_] _599_ d_lut_OR2X2
ANAND2X1_86 [i_add_term2_50_ i_add_term1_50_] _600_ d_lut_NAND2X1
ANAND3X1_35 [_598_ _600_ _599_] _601_ d_lut_NAND3X1
ANOR2X1_91 [i_add_term2_50_ i_add_term1_50_] _595_ d_lut_NOR2X1
AAND2X2_44 [i_add_term2_50_ i_add_term1_50_] _596_ d_lut_AND2X2
AOAI21X1_79 [_595_ _596_ _38__2_] _597_ d_lut_OAI21X1
ANAND2X1_87 [_597_ _601_] _0__50_ d_lut_NAND2X1
AOAI21X1_80 [_598_ _595_ _600_] _38__3_ d_lut_OAI21X1
AINVX1_76 [i_add_term1_48_] _602_ d_lut_INVX1
ANOR2X1_92 [i_add_term2_48_ _602_] _603_ d_lut_NOR2X1
AINVX1_77 [i_add_term2_48_] _604_ d_lut_INVX1
ANOR2X1_93 [i_add_term1_48_ _604_] _605_ d_lut_NOR2X1
AINVX1_78 [i_add_term1_49_] _606_ d_lut_INVX1
ANOR2X1_94 [i_add_term2_49_ _606_] _607_ d_lut_NOR2X1
AINVX1_79 [i_add_term2_49_] _608_ d_lut_INVX1
ANOR2X1_95 [i_add_term1_49_ _608_] _609_ d_lut_NOR2X1
AOAI22X1_9 [_603_ _605_ _607_ _609_] _610_ d_lut_OAI22X1
ANOR2X1_96 [i_add_term2_51_ i_add_term1_51_] _611_ d_lut_NOR2X1
AAND2X2_45 [i_add_term2_51_ i_add_term1_51_] _612_ d_lut_AND2X2
ANOR2X1_97 [_611_ _612_] _613_ d_lut_NOR2X1
AXOR2X1_9 [i_add_term2_50_ i_add_term1_50_] _614_ d_lut_XOR2X1
ANAND2X1_88 [_613_ _614_] _615_ d_lut_NAND2X1
ANOR2X1_98 [_610_ _615_] _39_ d_lut_NOR2X1
AINVX1_80 [_37_] _616_ d_lut_INVX1
ANAND2X1_89 [gnd _39_] _617_ d_lut_NAND2X1
AOAI21X1_81 [_39_ _616_ _617_] w_cout_13_ d_lut_OAI21X1
AINVX1_81 [w_cout_13_] _621_ d_lut_INVX1
AOR2X2_36 [i_add_term2_52_ i_add_term1_52_] _622_ d_lut_OR2X2
ANAND2X1_90 [i_add_term2_52_ i_add_term1_52_] _623_ d_lut_NAND2X1
ANAND3X1_36 [_621_ _623_ _622_] _624_ d_lut_NAND3X1
ANOR2X1_99 [i_add_term2_52_ i_add_term1_52_] _618_ d_lut_NOR2X1
AAND2X2_46 [i_add_term2_52_ i_add_term1_52_] _619_ d_lut_AND2X2
AOAI21X1_82 [_618_ _619_ w_cout_13_] _620_ d_lut_OAI21X1
ANAND2X1_91 [_620_ _624_] _0__52_ d_lut_NAND2X1
AOAI21X1_83 [_621_ _618_ _623_] _41__1_ d_lut_OAI21X1
AINVX1_82 [_41__3_] _628_ d_lut_INVX1
AOR2X2_37 [i_add_term2_55_ i_add_term1_55_] _629_ d_lut_OR2X2
ANAND2X1_92 [i_add_term2_55_ i_add_term1_55_] _630_ d_lut_NAND2X1
ANAND3X1_37 [_628_ _630_ _629_] _631_ d_lut_NAND3X1
ANOR2X1_100 [i_add_term2_55_ i_add_term1_55_] _625_ d_lut_NOR2X1
AAND2X2_47 [i_add_term2_55_ i_add_term1_55_] _626_ d_lut_AND2X2
AOAI21X1_84 [_625_ _626_ _41__3_] _627_ d_lut_OAI21X1
ANAND2X1_93 [_627_ _631_] _0__55_ d_lut_NAND2X1
AOAI21X1_85 [_628_ _625_ _630_] _40_ d_lut_OAI21X1
AINVX1_83 [_41__1_] _635_ d_lut_INVX1