*SPICE netlist created from BLIF module cla_43bit by blif2BSpice
.include /usr/local/share/qflow/tech/osu035/osu035_stdcells.sp
.subckt cla_43bit vdd gnd i_add1[0] i_add1[1] i_add1[2] i_add1[3] i_add1[4] i_add1[5] i_add1[6] i_add1[7] i_add1[8] i_add1[9] i_add1[10] i_add1[11] i_add1[12] i_add1[13] i_add1[14] i_add1[15] i_add1[16] i_add1[17] i_add1[18] i_add1[19] i_add1[20] i_add1[21] i_add1[22] i_add1[23] i_add1[24] i_add1[25] i_add1[26] i_add1[27] i_add1[28] i_add1[29] i_add1[30] i_add1[31] i_add1[32] i_add1[33] i_add1[34] i_add1[35] i_add1[36] i_add1[37] i_add1[38] i_add1[39] i_add1[40] i_add1[41] i_add1[42] i_add2[0] i_add2[1] i_add2[2] i_add2[3] i_add2[4] i_add2[5] i_add2[6] i_add2[7] i_add2[8] i_add2[9] i_add2[10] i_add2[11] i_add2[12] i_add2[13] i_add2[14] i_add2[15] i_add2[16] i_add2[17] i_add2[18] i_add2[19] i_add2[20] i_add2[21] i_add2[22] i_add2[23] i_add2[24] i_add2[25] i_add2[26] i_add2[27] i_add2[28] i_add2[29] i_add2[30] i_add2[31] i_add2[32] i_add2[33] i_add2[34] i_add2[35] i_add2[36] i_add2[37] i_add2[38] i_add2[39] i_add2[40] i_add2[41] i_add2[42] o_result[0] o_result[1] o_result[2] o_result[3] o_result[4] o_result[5] o_result[6] o_result[7] o_result[8] o_result[9] o_result[10] o_result[11] o_result[12] o_result[13] o_result[14] o_result[15] o_result[16] o_result[17] o_result[18] o_result[19] o_result[20] o_result[21] o_result[22] o_result[23] o_result[24] o_result[25] o_result[26] o_result[27] o_result[28] o_result[29] o_result[30] o_result[31] o_result[32] o_result[33] o_result[34] o_result[35] o_result[36] o_result[37] o_result[38] o_result[39] o_result[40] o_result[41] o_result[42] o_result[43] 
XNAND3X1_1 _349_ vdd gnd _347_ _348_ _350_ NAND3X1
XNOR2X1_1 vdd i_add1[17] gnd _344_ i_add2[17] NOR2X1
XAND2X2_1 vdd gnd i_add2[17] i_add1[17] _345_ AND2X2
XOAI21X1_1 gnd vdd _344_ _345_ _346_ w_C[17] OAI21X1
XNAND2X1_1 vdd _252_[17] gnd _346_ _350_ NAND2X1
XINVX1_1 w_C[18] _354_ vdd gnd INVX1
XOR2X2_1 _355_ i_add1[18] vdd gnd i_add2[18] OR2X2
XNAND2X1_2 vdd _356_ gnd i_add2[18] i_add1[18] NAND2X1
XNAND3X1_2 _356_ vdd gnd _354_ _355_ _357_ NAND3X1
XNOR2X1_2 vdd i_add1[18] gnd _351_ i_add2[18] NOR2X1
XAND2X2_2 vdd gnd i_add2[18] i_add1[18] _352_ AND2X2
XOAI21X1_2 gnd vdd _351_ _352_ _353_ w_C[18] OAI21X1
XNAND2X1_3 vdd _252_[18] gnd _353_ _357_ NAND2X1
XINVX1_2 w_C[19] _361_ vdd gnd INVX1
XOR2X2_2 _362_ i_add1[19] vdd gnd i_add2[19] OR2X2
XNAND2X1_4 vdd _363_ gnd i_add2[19] i_add1[19] NAND2X1
XNAND3X1_3 _363_ vdd gnd _361_ _362_ _364_ NAND3X1
XNOR2X1_3 vdd i_add1[19] gnd _358_ i_add2[19] NOR2X1
XAND2X2_3 vdd gnd i_add2[19] i_add1[19] _359_ AND2X2
XOAI21X1_3 gnd vdd _358_ _359_ _360_ w_C[19] OAI21X1
XNAND2X1_5 vdd _252_[19] gnd _360_ _364_ NAND2X1
XINVX1_3 w_C[20] _368_ vdd gnd INVX1
XOR2X2_3 _369_ i_add1[20] vdd gnd i_add2[20] OR2X2
XNAND2X1_6 vdd _370_ gnd i_add2[20] i_add1[20] NAND2X1
XNAND3X1_4 _370_ vdd gnd _368_ _369_ _371_ NAND3X1
XNOR2X1_4 vdd i_add1[20] gnd _365_ i_add2[20] NOR2X1
XAND2X2_4 vdd gnd i_add2[20] i_add1[20] _366_ AND2X2
XOAI21X1_4 gnd vdd _365_ _366_ _367_ w_C[20] OAI21X1
XNAND2X1_7 vdd _252_[20] gnd _367_ _371_ NAND2X1
XINVX1_4 w_C[21] _375_ vdd gnd INVX1
XOR2X2_4 _376_ i_add1[21] vdd gnd i_add2[21] OR2X2
XNAND2X1_8 vdd _377_ gnd i_add2[21] i_add1[21] NAND2X1
XNAND3X1_5 _377_ vdd gnd _375_ _376_ _378_ NAND3X1
XNOR2X1_5 vdd i_add1[21] gnd _372_ i_add2[21] NOR2X1
XAND2X2_5 vdd gnd i_add2[21] i_add1[21] _373_ AND2X2
XOAI21X1_5 gnd vdd _372_ _373_ _374_ w_C[21] OAI21X1
XNAND2X1_9 vdd _252_[21] gnd _374_ _378_ NAND2X1
XINVX1_5 w_C[22] _382_ vdd gnd INVX1
XOR2X2_5 _383_ i_add1[22] vdd gnd i_add2[22] OR2X2
XNAND2X1_10 vdd _384_ gnd i_add2[22] i_add1[22] NAND2X1
XNAND3X1_6 _384_ vdd gnd _382_ _383_ _385_ NAND3X1
XNOR2X1_6 vdd i_add1[22] gnd _379_ i_add2[22] NOR2X1
XAND2X2_6 vdd gnd i_add2[22] i_add1[22] _380_ AND2X2
XOAI21X1_6 gnd vdd _379_ _380_ _381_ w_C[22] OAI21X1
XNAND2X1_11 vdd _252_[22] gnd _381_ _385_ NAND2X1
XINVX1_6 w_C[23] _389_ vdd gnd INVX1
XOR2X2_6 _390_ i_add1[23] vdd gnd i_add2[23] OR2X2
XNAND2X1_12 vdd _391_ gnd i_add2[23] i_add1[23] NAND2X1
XNAND3X1_7 _391_ vdd gnd _389_ _390_ _392_ NAND3X1
XNOR2X1_7 vdd i_add1[23] gnd _386_ i_add2[23] NOR2X1
XAND2X2_7 vdd gnd i_add2[23] i_add1[23] _387_ AND2X2
XOAI21X1_7 gnd vdd _386_ _387_ _388_ w_C[23] OAI21X1
XNAND2X1_13 vdd _252_[23] gnd _388_ _392_ NAND2X1
XINVX1_7 w_C[24] _396_ vdd gnd INVX1
XOR2X2_7 _397_ i_add1[24] vdd gnd i_add2[24] OR2X2
XNAND2X1_14 vdd _398_ gnd i_add2[24] i_add1[24] NAND2X1
XNAND3X1_8 _398_ vdd gnd _396_ _397_ _399_ NAND3X1
XNOR2X1_8 vdd i_add1[24] gnd _393_ i_add2[24] NOR2X1
XAND2X2_8 vdd gnd i_add2[24] i_add1[24] _394_ AND2X2
XOAI21X1_8 gnd vdd _393_ _394_ _395_ w_C[24] OAI21X1
XNAND2X1_15 vdd _252_[24] gnd _395_ _399_ NAND2X1
XINVX1_8 w_C[25] _403_ vdd gnd INVX1
XOR2X2_8 _404_ i_add1[25] vdd gnd i_add2[25] OR2X2
XNAND2X1_16 vdd _405_ gnd i_add2[25] i_add1[25] NAND2X1
XNAND3X1_9 _405_ vdd gnd _403_ _404_ _406_ NAND3X1
XNOR2X1_9 vdd i_add1[25] gnd _400_ i_add2[25] NOR2X1
XAND2X2_9 vdd gnd i_add2[25] i_add1[25] _401_ AND2X2
XOAI21X1_9 gnd vdd _400_ _401_ _402_ w_C[25] OAI21X1
XNAND2X1_17 vdd _252_[25] gnd _402_ _406_ NAND2X1
XINVX1_9 w_C[26] _410_ vdd gnd INVX1
XOR2X2_9 _411_ i_add1[26] vdd gnd i_add2[26] OR2X2
XNAND2X1_18 vdd _412_ gnd i_add2[26] i_add1[26] NAND2X1
XNAND3X1_10 _412_ vdd gnd _410_ _411_ _413_ NAND3X1
XNOR2X1_10 vdd i_add1[26] gnd _407_ i_add2[26] NOR2X1
XAND2X2_10 vdd gnd i_add2[26] i_add1[26] _408_ AND2X2
XOAI21X1_10 gnd vdd _407_ _408_ _409_ w_C[26] OAI21X1
XNAND2X1_19 vdd _252_[26] gnd _409_ _413_ NAND2X1
XINVX1_10 w_C[27] _417_ vdd gnd INVX1
XOR2X2_10 _418_ i_add1[27] vdd gnd i_add2[27] OR2X2
XNAND2X1_20 vdd _419_ gnd i_add2[27] i_add1[27] NAND2X1
XNAND3X1_11 _419_ vdd gnd _417_ _418_ _420_ NAND3X1
XNOR2X1_11 vdd i_add1[27] gnd _414_ i_add2[27] NOR2X1
XAND2X2_11 vdd gnd i_add2[27] i_add1[27] _415_ AND2X2
XOAI21X1_11 gnd vdd _414_ _415_ _416_ w_C[27] OAI21X1
XNAND2X1_21 vdd _252_[27] gnd _416_ _420_ NAND2X1
XINVX1_11 w_C[28] _424_ vdd gnd INVX1
XOR2X2_11 _425_ i_add1[28] vdd gnd i_add2[28] OR2X2
XNAND2X1_22 vdd _426_ gnd i_add2[28] i_add1[28] NAND2X1
XNAND3X1_12 _426_ vdd gnd _424_ _425_ _427_ NAND3X1
XNOR2X1_12 vdd i_add1[28] gnd _421_ i_add2[28] NOR2X1
XAND2X2_12 vdd gnd i_add2[28] i_add1[28] _422_ AND2X2
XOAI21X1_12 gnd vdd _421_ _422_ _423_ w_C[28] OAI21X1
XNAND2X1_23 vdd _252_[28] gnd _423_ _427_ NAND2X1
XINVX1_12 w_C[29] _431_ vdd gnd INVX1
XOR2X2_12 _432_ i_add1[29] vdd gnd i_add2[29] OR2X2
XNAND2X1_24 vdd _433_ gnd i_add2[29] i_add1[29] NAND2X1
XNAND3X1_13 _433_ vdd gnd _431_ _432_ _434_ NAND3X1
XNOR2X1_13 vdd i_add1[29] gnd _428_ i_add2[29] NOR2X1
XAND2X2_13 vdd gnd i_add2[29] i_add1[29] _429_ AND2X2
XOAI21X1_13 gnd vdd _428_ _429_ _430_ w_C[29] OAI21X1
XNAND2X1_25 vdd _252_[29] gnd _430_ _434_ NAND2X1
XINVX1_13 w_C[30] _438_ vdd gnd INVX1
XOR2X2_13 _439_ i_add1[30] vdd gnd i_add2[30] OR2X2
XNAND2X1_26 vdd _440_ gnd i_add2[30] i_add1[30] NAND2X1
XNAND3X1_14 _440_ vdd gnd _438_ _439_ _441_ NAND3X1
XNOR2X1_14 vdd i_add1[30] gnd _435_ i_add2[30] NOR2X1
XAND2X2_14 vdd gnd i_add2[30] i_add1[30] _436_ AND2X2
XOAI21X1_14 gnd vdd _435_ _436_ _437_ w_C[30] OAI21X1
XNAND2X1_27 vdd _252_[30] gnd _437_ _441_ NAND2X1
XINVX1_14 w_C[31] _445_ vdd gnd INVX1
XOR2X2_14 _446_ i_add1[31] vdd gnd i_add2[31] OR2X2
XNAND2X1_28 vdd _447_ gnd i_add2[31] i_add1[31] NAND2X1
XNAND3X1_15 _447_ vdd gnd _445_ _446_ _448_ NAND3X1
XNOR2X1_15 vdd i_add1[31] gnd _442_ i_add2[31] NOR2X1
XAND2X2_15 vdd gnd i_add2[31] i_add1[31] _443_ AND2X2
XOAI21X1_15 gnd vdd _442_ _443_ _444_ w_C[31] OAI21X1
XNAND2X1_29 vdd _252_[31] gnd _444_ _448_ NAND2X1
XINVX1_15 w_C[32] _452_ vdd gnd INVX1
XOR2X2_15 _453_ i_add1[32] vdd gnd i_add2[32] OR2X2
XNAND2X1_30 vdd _454_ gnd i_add2[32] i_add1[32] NAND2X1
XNAND3X1_16 _454_ vdd gnd _452_ _453_ _455_ NAND3X1
XNOR2X1_16 vdd i_add1[32] gnd _449_ i_add2[32] NOR2X1
XAND2X2_16 vdd gnd i_add2[32] i_add1[32] _450_ AND2X2
XOAI21X1_16 gnd vdd _449_ _450_ _451_ w_C[32] OAI21X1
XNAND2X1_31 vdd _252_[32] gnd _451_ _455_ NAND2X1
XINVX1_16 w_C[33] _459_ vdd gnd INVX1
XOR2X2_16 _460_ i_add1[33] vdd gnd i_add2[33] OR2X2
XNAND2X1_32 vdd _461_ gnd i_add2[33] i_add1[33] NAND2X1
XNAND3X1_17 _461_ vdd gnd _459_ _460_ _462_ NAND3X1
XNOR2X1_17 vdd i_add1[33] gnd _456_ i_add2[33] NOR2X1
XAND2X2_17 vdd gnd i_add2[33] i_add1[33] _457_ AND2X2
XOAI21X1_17 gnd vdd _456_ _457_ _458_ w_C[33] OAI21X1
XNAND2X1_33 vdd _252_[33] gnd _458_ _462_ NAND2X1
XINVX1_17 w_C[34] _466_ vdd gnd INVX1
XOR2X2_17 _467_ i_add1[34] vdd gnd i_add2[34] OR2X2
XNAND2X1_34 vdd _468_ gnd i_add2[34] i_add1[34] NAND2X1
XNAND3X1_18 _468_ vdd gnd _466_ _467_ _469_ NAND3X1
XNOR2X1_18 vdd i_add1[34] gnd _463_ i_add2[34] NOR2X1
XAND2X2_18 vdd gnd i_add2[34] i_add1[34] _464_ AND2X2
XOAI21X1_18 gnd vdd _463_ _464_ _465_ w_C[34] OAI21X1
XNAND2X1_35 vdd _252_[34] gnd _465_ _469_ NAND2X1
XINVX1_18 w_C[35] _473_ vdd gnd INVX1
XOR2X2_18 _474_ i_add1[35] vdd gnd i_add2[35] OR2X2
XNAND2X1_36 vdd _475_ gnd i_add2[35] i_add1[35] NAND2X1
XNAND3X1_19 _475_ vdd gnd _473_ _474_ _476_ NAND3X1
XNOR2X1_19 vdd i_add1[35] gnd _470_ i_add2[35] NOR2X1
XAND2X2_19 vdd gnd i_add2[35] i_add1[35] _471_ AND2X2
XOAI21X1_19 gnd vdd _470_ _471_ _472_ w_C[35] OAI21X1
XNAND2X1_37 vdd _252_[35] gnd _472_ _476_ NAND2X1
XINVX1_19 w_C[36] _480_ vdd gnd INVX1
XOR2X2_19 _481_ i_add1[36] vdd gnd i_add2[36] OR2X2
XNAND2X1_38 vdd _482_ gnd i_add2[36] i_add1[36] NAND2X1
XNAND3X1_20 _482_ vdd gnd _480_ _481_ _483_ NAND3X1
XNOR2X1_20 vdd i_add1[36] gnd _477_ i_add2[36] NOR2X1
XAND2X2_20 vdd gnd i_add2[36] i_add1[36] _478_ AND2X2
XOAI21X1_20 gnd vdd _477_ _478_ _479_ w_C[36] OAI21X1
XNAND2X1_39 vdd _252_[36] gnd _479_ _483_ NAND2X1
XINVX1_20 w_C[37] _487_ vdd gnd INVX1
XOR2X2_20 _488_ i_add1[37] vdd gnd i_add2[37] OR2X2
XNAND2X1_40 vdd _489_ gnd i_add2[37] i_add1[37] NAND2X1
XNAND3X1_21 _489_ vdd gnd _487_ _488_ _490_ NAND3X1
XNOR2X1_21 vdd i_add1[37] gnd _484_ i_add2[37] NOR2X1
XAND2X2_21 vdd gnd i_add2[37] i_add1[37] _485_ AND2X2
XOAI21X1_21 gnd vdd _484_ _485_ _486_ w_C[37] OAI21X1
XNAND2X1_41 vdd _252_[37] gnd _486_ _490_ NAND2X1
XINVX1_21 w_C[38] _494_ vdd gnd INVX1
XOR2X2_21 _495_ i_add1[38] vdd gnd i_add2[38] OR2X2
XNAND2X1_42 vdd _496_ gnd i_add2[38] i_add1[38] NAND2X1
XNAND3X1_22 _496_ vdd gnd _494_ _495_ _497_ NAND3X1
XNOR2X1_22 vdd i_add1[38] gnd _491_ i_add2[38] NOR2X1
XAND2X2_22 vdd gnd i_add2[38] i_add1[38] _492_ AND2X2
XOAI21X1_22 gnd vdd _491_ _492_ _493_ w_C[38] OAI21X1
XNAND2X1_43 vdd _252_[38] gnd _493_ _497_ NAND2X1
XINVX1_22 w_C[39] _501_ vdd gnd INVX1
XOR2X2_22 _502_ i_add1[39] vdd gnd i_add2[39] OR2X2
XNAND2X1_44 vdd _503_ gnd i_add2[39] i_add1[39] NAND2X1
XNAND3X1_23 _503_ vdd gnd _501_ _502_ _504_ NAND3X1
XNOR2X1_23 vdd i_add1[39] gnd _498_ i_add2[39] NOR2X1
XAND2X2_23 vdd gnd i_add2[39] i_add1[39] _499_ AND2X2
XOAI21X1_23 gnd vdd _498_ _499_ _500_ w_C[39] OAI21X1
XNAND2X1_45 vdd _252_[39] gnd _500_ _504_ NAND2X1
XINVX1_23 w_C[40] _508_ vdd gnd INVX1
XOR2X2_23 _509_ i_add1[40] vdd gnd i_add2[40] OR2X2
XNAND2X1_46 vdd _510_ gnd i_add2[40] i_add1[40] NAND2X1
XNAND3X1_24 _510_ vdd gnd _508_ _509_ _511_ NAND3X1
XNOR2X1_24 vdd i_add1[40] gnd _505_ i_add2[40] NOR2X1
XAND2X2_24 vdd gnd i_add2[40] i_add1[40] _506_ AND2X2
XOAI21X1_24 gnd vdd _505_ _506_ _507_ w_C[40] OAI21X1
XNAND2X1_47 vdd _252_[40] gnd _507_ _511_ NAND2X1
XINVX1_24 w_C[41] _515_ vdd gnd INVX1
XOR2X2_24 _516_ i_add1[41] vdd gnd i_add2[41] OR2X2
XNAND2X1_48 vdd _517_ gnd i_add2[41] i_add1[41] NAND2X1
XNAND3X1_25 _517_ vdd gnd _515_ _516_ _518_ NAND3X1
XNOR2X1_25 vdd i_add1[41] gnd _512_ i_add2[41] NOR2X1
XAND2X2_25 vdd gnd i_add2[41] i_add1[41] _513_ AND2X2
XOAI21X1_25 gnd vdd _512_ _513_ _514_ w_C[41] OAI21X1
XNAND2X1_49 vdd _252_[41] gnd _514_ _518_ NAND2X1
XINVX1_25 w_C[42] _522_ vdd gnd INVX1
XOR2X2_25 _523_ i_add1[42] vdd gnd i_add2[42] OR2X2
XNAND2X1_50 vdd _524_ gnd i_add2[42] i_add1[42] NAND2X1
XNAND3X1_26 _524_ vdd gnd _522_ _523_ _525_ NAND3X1
XNOR2X1_26 vdd i_add1[42] gnd _519_ i_add2[42] NOR2X1
XAND2X2_26 vdd gnd i_add2[42] i_add1[42] _520_ AND2X2
XOAI21X1_26 gnd vdd _519_ _520_ _521_ w_C[42] OAI21X1
XNAND2X1_51 vdd _252_[42] gnd _521_ _525_ NAND2X1
XINVX1_26 gnd _529_ vdd gnd INVX1
XOR2X2_26 _530_ i_add1[0] vdd gnd i_add2[0] OR2X2
XNAND2X1_52 vdd _531_ gnd i_add2[0] i_add1[0] NAND2X1
XNAND3X1_27 _531_ vdd gnd _529_ _530_ _532_ NAND3X1
XNOR2X1_27 vdd i_add1[0] gnd _526_ i_add2[0] NOR2X1
XAND2X2_27 vdd gnd i_add2[0] i_add1[0] _527_ AND2X2
XOAI21X1_27 gnd vdd _526_ _527_ _528_ gnd OAI21X1
XNAND2X1_53 vdd _252_[0] gnd _528_ _532_ NAND2X1
XINVX1_27 w_C[1] _536_ vdd gnd INVX1
XOR2X2_27 _537_ i_add1[1] vdd gnd i_add2[1] OR2X2
XNAND2X1_54 vdd _538_ gnd i_add2[1] i_add1[1] NAND2X1
XNAND3X1_28 _538_ vdd gnd _536_ _537_ _539_ NAND3X1
XNOR2X1_28 vdd i_add1[1] gnd _533_ i_add2[1] NOR2X1
XAND2X2_28 vdd gnd i_add2[1] i_add1[1] _534_ AND2X2
XOAI21X1_28 gnd vdd _533_ _534_ _535_ w_C[1] OAI21X1
XNAND2X1_55 vdd _252_[1] gnd _535_ _539_ NAND2X1
XINVX1_28 w_C[2] _543_ vdd gnd INVX1
XOR2X2_28 _544_ i_add1[2] vdd gnd i_add2[2] OR2X2
XNAND2X1_56 vdd _545_ gnd i_add2[2] i_add1[2] NAND2X1
XNAND3X1_29 _545_ vdd gnd _543_ _544_ _546_ NAND3X1
XNOR2X1_29 vdd i_add1[2] gnd _540_ i_add2[2] NOR2X1
XAND2X2_29 vdd gnd i_add2[2] i_add1[2] _541_ AND2X2
XOAI21X1_29 gnd vdd _540_ _541_ _542_ w_C[2] OAI21X1
XNAND2X1_57 vdd _252_[2] gnd _542_ _546_ NAND2X1
XINVX1_29 w_C[3] _550_ vdd gnd INVX1
XOR2X2_29 _551_ i_add1[3] vdd gnd i_add2[3] OR2X2
XNAND2X1_58 vdd _552_ gnd i_add2[3] i_add1[3] NAND2X1
XNAND3X1_30 _552_ vdd gnd _550_ _551_ _553_ NAND3X1
XNOR2X1_30 vdd i_add1[3] gnd _547_ i_add2[3] NOR2X1
XAND2X2_30 vdd gnd i_add2[3] i_add1[3] _548_ AND2X2
XOAI21X1_30 gnd vdd _547_ _548_ _549_ w_C[3] OAI21X1
XNAND2X1_59 vdd _252_[3] gnd _549_ _553_ NAND2X1
XNAND2X1_60 vdd _0_ gnd i_add2[0] i_add1[0] NAND2X1
XINVX1_30 _0_ w_C[1] vdd gnd INVX1
XNAND2X1_61 vdd _1_ gnd i_add2[1] i_add1[1] NAND2X1
XNAND2X1_62 vdd _2_ gnd _0_ _1_ NAND2X1
XOAI21X1_31 gnd vdd i_add2[1] i_add1[1] _3_ _2_ OAI21X1
XINVX1_31 _3_ w_C[2] vdd gnd INVX1
XNAND2X1_63 vdd _4_ gnd i_add2[2] i_add1[2] NAND2X1
XOR2X2_30 _5_ i_add1[1] vdd gnd i_add2[1] OR2X2
XOR2X2_31 _6_ i_add1[2] vdd gnd i_add2[2] OR2X2
XNAND3X1_31 _6_ vdd gnd _5_ _2_ _7_ NAND3X1
XNAND2X1_64 vdd w_C[3] gnd _4_ _7_ NAND2X1
XINVX1_32 i_add2[3] _8_ vdd gnd INVX1
XINVX1_33 i_add1[3] _9_ vdd gnd INVX1
XNAND2X1_65 vdd _10_ gnd _8_ _9_ NAND2X1
XNAND2X1_66 vdd _11_ gnd i_add2[3] i_add1[3] NAND2X1
XNAND3X1_32 _11_ vdd gnd _4_ _7_ _12_ NAND3X1
XAND2X2_31 vdd gnd _12_ _10_ w_C[4] AND2X2
XNAND2X1_67 vdd _13_ gnd i_add2[4] i_add1[4] NAND2X1
XOR2X2_32 _14_ i_add1[4] vdd gnd i_add2[4] OR2X2
XNAND3X1_33 _14_ vdd gnd _10_ _12_ _15_ NAND3X1
XNAND2X1_68 vdd w_C[5] gnd _13_ _15_ NAND2X1
XNAND2X1_69 vdd _16_ gnd i_add2[5] i_add1[5] NAND2X1
XNAND3X1_34 _16_ vdd gnd _13_ _15_ _17_ NAND3X1
XOAI21X1_32 gnd vdd i_add2[5] i_add1[5] _18_ _17_ OAI21X1
XINVX1_34 _18_ w_C[6] vdd gnd INVX1
XINVX1_35 i_add2[6] _19_ vdd gnd INVX1
XINVX1_36 i_add1[6] _20_ vdd gnd INVX1
XNOR2X1_31 vdd i_add1[5] gnd _21_ i_add2[5] NOR2X1
XINVX1_37 _21_ _22_ vdd gnd INVX1
XNOR2X1_32 vdd i_add1[6] gnd _23_ i_add2[6] NOR2X1
XINVX1_38 _23_ _24_ vdd gnd INVX1
XNAND3X1_35 _24_ vdd gnd _22_ _17_ _25_ NAND3X1
XOAI21X1_33 gnd vdd _19_ _20_ w_C[7] _25_ OAI21X1
XNOR2X1_33 vdd _20_ gnd _26_ _19_ NOR2X1
XINVX1_39 _26_ _27_ vdd gnd INVX1
XAND2X2_32 vdd gnd i_add2[7] i_add1[7] _28_ AND2X2
XINVX1_40 _28_ _29_ vdd gnd INVX1
XNAND3X1_36 _29_ vdd gnd _27_ _25_ _30_ NAND3X1
XOAI21X1_34 gnd vdd i_add2[7] i_add1[7] _31_ _30_ OAI21X1
XINVX1_41 _31_ w_C[8] vdd gnd INVX1
XINVX1_42 i_add2[8] _32_ vdd gnd INVX1
XINVX1_43 i_add1[8] _33_ vdd gnd INVX1
XNOR2X1_34 vdd i_add1[7] gnd _34_ i_add2[7] NOR2X1
XINVX1_44 _34_ _35_ vdd gnd INVX1
XNOR2X1_35 vdd i_add1[8] gnd _36_ i_add2[8] NOR2X1
XINVX1_45 _36_ _37_ vdd gnd INVX1
XNAND3X1_37 _37_ vdd gnd _35_ _30_ _38_ NAND3X1
XOAI21X1_35 gnd vdd _32_ _33_ w_C[9] _38_ OAI21X1
XNOR2X1_36 vdd _33_ gnd _39_ _32_ NOR2X1
XINVX1_46 _39_ _40_ vdd gnd INVX1
XAND2X2_33 vdd gnd i_add2[9] i_add1[9] _41_ AND2X2
XINVX1_47 _41_ _42_ vdd gnd INVX1
XNAND3X1_38 _42_ vdd gnd _40_ _38_ _43_ NAND3X1
XOAI21X1_36 gnd vdd i_add2[9] i_add1[9] _44_ _43_ OAI21X1
XINVX1_48 _44_ w_C[10] vdd gnd INVX1
XINVX1_49 i_add2[10] _45_ vdd gnd INVX1
XINVX1_50 i_add1[10] _46_ vdd gnd INVX1
XNOR2X1_37 vdd i_add1[9] gnd _47_ i_add2[9] NOR2X1
XINVX1_51 _47_ _48_ vdd gnd INVX1
XNOR2X1_38 vdd i_add1[10] gnd _49_ i_add2[10] NOR2X1
XINVX1_52 _49_ _50_ vdd gnd INVX1
XNAND3X1_39 _50_ vdd gnd _48_ _43_ _51_ NAND3X1
XOAI21X1_37 gnd vdd _45_ _46_ w_C[11] _51_ OAI21X1
XNOR2X1_39 vdd _46_ gnd _52_ _45_ NOR2X1
XINVX1_53 _52_ _53_ vdd gnd INVX1
XAND2X2_34 vdd gnd i_add2[11] i_add1[11] _54_ AND2X2
XINVX1_54 _54_ _55_ vdd gnd INVX1
XNAND3X1_40 _55_ vdd gnd _53_ _51_ _56_ NAND3X1
XOAI21X1_38 gnd vdd i_add2[11] i_add1[11] _57_ _56_ OAI21X1
XINVX1_55 _57_ w_C[12] vdd gnd INVX1
XINVX1_56 i_add2[12] _58_ vdd gnd INVX1
XINVX1_57 i_add1[12] _59_ vdd gnd INVX1
XNOR2X1_40 vdd i_add1[11] gnd _60_ i_add2[11] NOR2X1
XINVX1_58 _60_ _61_ vdd gnd INVX1
XNOR2X1_41 vdd i_add1[12] gnd _62_ i_add2[12] NOR2X1
XINVX1_59 _62_ _63_ vdd gnd INVX1
XNAND3X1_41 _63_ vdd gnd _61_ _56_ _64_ NAND3X1
XOAI21X1_39 gnd vdd _58_ _59_ w_C[13] _64_ OAI21X1
XNOR2X1_42 vdd _59_ gnd _65_ _58_ NOR2X1
XINVX1_60 _65_ _66_ vdd gnd INVX1
XAND2X2_35 vdd gnd i_add2[13] i_add1[13] _67_ AND2X2
XINVX1_61 _67_ _68_ vdd gnd INVX1
XNAND3X1_42 _68_ vdd gnd _66_ _64_ _69_ NAND3X1
XOAI21X1_40 gnd vdd i_add2[13] i_add1[13] _70_ _69_ OAI21X1
XINVX1_62 _70_ w_C[14] vdd gnd INVX1
XINVX1_63 i_add2[14] _71_ vdd gnd INVX1
XINVX1_64 i_add1[14] _72_ vdd gnd INVX1
XNOR2X1_43 vdd _72_ gnd _73_ _71_ NOR2X1
XINVX1_65 _73_ _74_ vdd gnd INVX1
XNOR2X1_44 vdd i_add1[13] gnd _75_ i_add2[13] NOR2X1
XINVX1_66 _75_ _76_ vdd gnd INVX1
XNOR2X1_45 vdd i_add1[14] gnd _77_ i_add2[14] NOR2X1
XINVX1_67 _77_ _78_ vdd gnd INVX1
XNAND3X1_43 _78_ vdd gnd _76_ _69_ _79_ NAND3X1
XAND2X2_36 vdd gnd _79_ _74_ _80_ AND2X2
XINVX1_68 _80_ w_C[15] vdd gnd INVX1
XAND2X2_37 vdd gnd i_add2[15] i_add1[15] _81_ AND2X2
XINVX1_69 _81_ _82_ vdd gnd INVX1
XNAND3X1_44 _82_ vdd gnd _74_ _79_ _83_ NAND3X1
XOAI21X1_41 gnd vdd i_add2[15] i_add1[15] _84_ _83_ OAI21X1
XINVX1_70 _84_ w_C[16] vdd gnd INVX1
XINVX1_71 i_add2[16] _85_ vdd gnd INVX1
XINVX1_72 i_add1[16] _86_ vdd gnd INVX1
XNOR2X1_46 vdd _86_ gnd _87_ _85_ NOR2X1
XINVX1_73 _87_ _88_ vdd gnd INVX1
XNOR2X1_47 vdd i_add1[15] gnd _89_ i_add2[15] NOR2X1
XINVX1_74 _89_ _90_ vdd gnd INVX1
XNOR2X1_48 vdd i_add1[16] gnd _91_ i_add2[16] NOR2X1
XINVX1_75 _91_ _92_ vdd gnd INVX1
XNAND3X1_45 _92_ vdd gnd _90_ _83_ _93_ NAND3X1
XAND2X2_38 vdd gnd _93_ _88_ _94_ AND2X2
XINVX1_76 _94_ w_C[17] vdd gnd INVX1
XAND2X2_39 vdd gnd i_add2[17] i_add1[17] _95_ AND2X2
XINVX1_77 _95_ _96_ vdd gnd INVX1
XNAND3X1_46 _96_ vdd gnd _88_ _93_ _97_ NAND3X1
XOAI21X1_42 gnd vdd i_add2[17] i_add1[17] _98_ _97_ OAI21X1
XINVX1_78 _98_ w_C[18] vdd gnd INVX1
XINVX1_79 i_add2[18] _99_ vdd gnd INVX1
XINVX1_80 i_add1[18] _100_ vdd gnd INVX1
XNOR2X1_49 vdd _100_ gnd _101_ _99_ NOR2X1
XINVX1_81 _101_ _102_ vdd gnd INVX1
XNOR2X1_50 vdd i_add1[17] gnd _103_ i_add2[17] NOR2X1
XINVX1_82 _103_ _104_ vdd gnd INVX1
XNOR2X1_51 vdd i_add1[18] gnd _105_ i_add2[18] NOR2X1
XINVX1_83 _105_ _106_ vdd gnd INVX1
XNAND3X1_47 _106_ vdd gnd _104_ _97_ _107_ NAND3X1
XAND2X2_40 vdd gnd _107_ _102_ _108_ AND2X2
XINVX1_84 _108_ w_C[19] vdd gnd INVX1
XAND2X2_41 vdd gnd i_add2[19] i_add1[19] _109_ AND2X2
XINVX1_85 _109_ _110_ vdd gnd INVX1
XNAND3X1_48 _110_ vdd gnd _102_ _107_ _111_ NAND3X1
XOAI21X1_43 gnd vdd i_add2[19] i_add1[19] _112_ _111_ OAI21X1
XINVX1_86 _112_ w_C[20] vdd gnd INVX1
XINVX1_87 i_add2[20] _113_ vdd gnd INVX1
XINVX1_88 i_add1[20] _114_ vdd gnd INVX1
XNOR2X1_52 vdd _114_ gnd _115_ _113_ NOR2X1
XINVX1_89 _115_ _116_ vdd gnd INVX1
XNOR2X1_53 vdd i_add1[19] gnd _117_ i_add2[19] NOR2X1
XINVX1_90 _117_ _118_ vdd gnd INVX1
XNOR2X1_54 vdd i_add1[20] gnd _119_ i_add2[20] NOR2X1
XINVX1_91 _119_ _120_ vdd gnd INVX1
XNAND3X1_49 _120_ vdd gnd _118_ _111_ _121_ NAND3X1
XAND2X2_42 vdd gnd _121_ _116_ _122_ AND2X2
XINVX1_92 _122_ w_C[21] vdd gnd INVX1
XAND2X2_43 vdd gnd i_add2[21] i_add1[21] _123_ AND2X2
XINVX1_93 _123_ _124_ vdd gnd INVX1
XNAND3X1_50 _124_ vdd gnd _116_ _121_ _125_ NAND3X1
XOAI21X1_44 gnd vdd i_add2[21] i_add1[21] _126_ _125_ OAI21X1
XINVX1_94 _126_ w_C[22] vdd gnd INVX1
XINVX1_95 i_add2[22] _127_ vdd gnd INVX1
XINVX1_96 i_add1[22] _128_ vdd gnd INVX1
XNOR2X1_55 vdd _128_ gnd _129_ _127_ NOR2X1
XINVX1_97 _129_ _130_ vdd gnd INVX1
XNOR2X1_56 vdd i_add1[21] gnd _131_ i_add2[21] NOR2X1
XINVX1_98 _131_ _132_ vdd gnd INVX1
XNOR2X1_57 vdd i_add1[22] gnd _133_ i_add2[22] NOR2X1
XINVX1_99 _133_ _134_ vdd gnd INVX1
XNAND3X1_51 _134_ vdd gnd _132_ _125_ _135_ NAND3X1
XAND2X2_44 vdd gnd _135_ _130_ _136_ AND2X2
XINVX1_100 _136_ w_C[23] vdd gnd INVX1
XAND2X2_45 vdd gnd i_add2[23] i_add1[23] _137_ AND2X2
XINVX1_101 _137_ _138_ vdd gnd INVX1
XNAND3X1_52 _138_ vdd gnd _130_ _135_ _139_ NAND3X1
XOAI21X1_45 gnd vdd i_add2[23] i_add1[23] _140_ _139_ OAI21X1
XINVX1_102 _140_ w_C[24] vdd gnd INVX1
XINVX1_103 i_add2[24] _141_ vdd gnd INVX1
XINVX1_104 i_add1[24] _142_ vdd gnd INVX1
XNOR2X1_58 vdd _142_ gnd _143_ _141_ NOR2X1
XINVX1_105 _143_ _144_ vdd gnd INVX1
XNOR2X1_59 vdd i_add1[23] gnd _145_ i_add2[23] NOR2X1
XINVX1_106 _145_ _146_ vdd gnd INVX1
XNOR2X1_60 vdd i_add1[24] gnd _147_ i_add2[24] NOR2X1
XINVX1_107 _147_ _148_ vdd gnd INVX1
XNAND3X1_53 _148_ vdd gnd _146_ _139_ _149_ NAND3X1
XAND2X2_46 vdd gnd _149_ _144_ _150_ AND2X2
XINVX1_108 _150_ w_C[25] vdd gnd INVX1
XAND2X2_47 vdd gnd i_add2[25] i_add1[25] _151_ AND2X2
XINVX1_109 _151_ _152_ vdd gnd INVX1
XNAND3X1_54 _152_ vdd gnd _144_ _149_ _153_ NAND3X1
XOAI21X1_46 gnd vdd i_add2[25] i_add1[25] _154_ _153_ OAI21X1
XINVX1_110 _154_ w_C[26] vdd gnd INVX1
XINVX1_111 i_add2[26] _155_ vdd gnd INVX1
XINVX1_112 i_add1[26] _156_ vdd gnd INVX1
XNOR2X1_61 vdd _156_ gnd _157_ _155_ NOR2X1
XINVX1_113 _157_ _158_ vdd gnd INVX1
XNOR2X1_62 vdd i_add1[25] gnd _159_ i_add2[25] NOR2X1
XINVX1_114 _159_ _160_ vdd gnd INVX1
XNOR2X1_63 vdd i_add1[26] gnd _161_ i_add2[26] NOR2X1
XINVX1_115 _161_ _162_ vdd gnd INVX1
XNAND3X1_55 _162_ vdd gnd _160_ _153_ _163_ NAND3X1
XAND2X2_48 vdd gnd _163_ _158_ _164_ AND2X2
XINVX1_116 _164_ w_C[27] vdd gnd INVX1
XAND2X2_49 vdd gnd i_add2[27] i_add1[27] _165_ AND2X2
XINVX1_117 _165_ _166_ vdd gnd INVX1
XNAND3X1_56 _166_ vdd gnd _158_ _163_ _167_ NAND3X1
XOAI21X1_47 gnd vdd i_add2[27] i_add1[27] _168_ _167_ OAI21X1
XINVX1_118 _168_ w_C[28] vdd gnd INVX1
XINVX1_119 i_add2[28] _169_ vdd gnd INVX1
XINVX1_120 i_add1[28] _170_ vdd gnd INVX1
XNOR2X1_64 vdd _170_ gnd _171_ _169_ NOR2X1
XINVX1_121 _171_ _172_ vdd gnd INVX1
XNOR2X1_65 vdd i_add1[27] gnd _173_ i_add2[27] NOR2X1
XINVX1_122 _173_ _174_ vdd gnd INVX1
XNOR2X1_66 vdd i_add1[28] gnd _175_ i_add2[28] NOR2X1
XINVX1_123 _175_ _176_ vdd gnd INVX1
XNAND3X1_57 _176_ vdd gnd _174_ _167_ _177_ NAND3X1
XAND2X2_50 vdd gnd _177_ _172_ _178_ AND2X2
XINVX1_124 _178_ w_C[29] vdd gnd INVX1
XAND2X2_51 vdd gnd i_add2[29] i_add1[29] _179_ AND2X2
XINVX1_125 _179_ _180_ vdd gnd INVX1
XNAND3X1_58 _180_ vdd gnd _172_ _177_ _181_ NAND3X1
XOAI21X1_48 gnd vdd i_add2[29] i_add1[29] _182_ _181_ OAI21X1
XINVX1_126 _182_ w_C[30] vdd gnd INVX1
XINVX1_127 i_add2[30] _183_ vdd gnd INVX1
XINVX1_128 i_add1[30] _184_ vdd gnd INVX1
XNOR2X1_67 vdd _184_ gnd _185_ _183_ NOR2X1
XINVX1_129 _185_ _186_ vdd gnd INVX1
XNOR2X1_68 vdd i_add1[29] gnd _187_ i_add2[29] NOR2X1
XINVX1_130 _187_ _188_ vdd gnd INVX1
XNOR2X1_69 vdd i_add1[30] gnd _189_ i_add2[30] NOR2X1
XINVX1_131 _189_ _190_ vdd gnd INVX1
XNAND3X1_59 _190_ vdd gnd _188_ _181_ _191_ NAND3X1
XAND2X2_52 vdd gnd _191_ _186_ _192_ AND2X2
XINVX1_132 _192_ w_C[31] vdd gnd INVX1
XAND2X2_53 vdd gnd i_add2[31] i_add1[31] _193_ AND2X2
XINVX1_133 _193_ _194_ vdd gnd INVX1
XNAND3X1_60 _194_ vdd gnd _186_ _191_ _195_ NAND3X1
XOAI21X1_49 gnd vdd i_add2[31] i_add1[31] _196_ _195_ OAI21X1
XINVX1_134 _196_ w_C[32] vdd gnd INVX1
XINVX1_135 i_add2[32] _197_ vdd gnd INVX1
XINVX1_136 i_add1[32] _198_ vdd gnd INVX1
XNOR2X1_70 vdd _198_ gnd _199_ _197_ NOR2X1
XINVX1_137 _199_ _200_ vdd gnd INVX1
XNOR2X1_71 vdd i_add1[31] gnd _201_ i_add2[31] NOR2X1
XINVX1_138 _201_ _202_ vdd gnd INVX1
XNOR2X1_72 vdd i_add1[32] gnd _203_ i_add2[32] NOR2X1
XINVX1_139 _203_ _204_ vdd gnd INVX1
XNAND3X1_61 _204_ vdd gnd _202_ _195_ _205_ NAND3X1
XAND2X2_54 vdd gnd _205_ _200_ _206_ AND2X2
XINVX1_140 _206_ w_C[33] vdd gnd INVX1
XAND2X2_55 vdd gnd i_add2[33] i_add1[33] _207_ AND2X2
XINVX1_141 _207_ _208_ vdd gnd INVX1
XNAND3X1_62 _208_ vdd gnd _200_ _205_ _209_ NAND3X1
XOAI21X1_50 gnd vdd i_add2[33] i_add1[33] _210_ _209_ OAI21X1
XINVX1_142 _210_ w_C[34] vdd gnd INVX1
XNAND2X1_70 vdd _211_ gnd i_add2[34] i_add1[34] NAND2X1
XNOR2X1_73 vdd i_add1[34] gnd _212_ i_add2[34] NOR2X1
XOAI21X1_51 gnd vdd _212_ _210_ w_C[35] _211_ OAI21X1
XOR2X2_33 _213_ i_add1[35] vdd gnd i_add2[35] OR2X2
XNOR2X1_74 vdd i_add1[33] gnd _214_ i_add2[33] NOR2X1
XINVX1_143 _214_ _215_ vdd gnd INVX1
XINVX1_144 _212_ _216_ vdd gnd INVX1
XNAND3X1_63 _216_ vdd gnd _215_ _209_ _217_ NAND3X1
XNAND2X1_71 vdd _218_ gnd i_add2[35] i_add1[35] NAND2X1
XNAND3X1_64 _218_ vdd gnd _211_ _217_ _219_ NAND3X1
XAND2X2_56 vdd gnd _219_ _213_ w_C[36] AND2X2
XINVX1_145 i_add2[36] _220_ vdd gnd INVX1
XINVX1_146 i_add1[36] _221_ vdd gnd INVX1
XNAND2X1_72 vdd _222_ gnd _220_ _221_ NAND2X1
XNAND3X1_65 _222_ vdd gnd _213_ _219_ _223_ NAND3X1
XOAI21X1_52 gnd vdd _220_ _221_ w_C[37] _223_ OAI21X1
XINVX1_147 i_add2[37] _224_ vdd gnd INVX1
XINVX1_148 i_add1[37] _225_ vdd gnd INVX1
XOAI21X1_53 gnd vdd i_add2[37] i_add1[37] _226_ w_C[37] OAI21X1
XOAI21X1_54 gnd vdd _224_ _225_ w_C[38] _226_ OAI21X1
XINVX1_149 i_add2[38] _227_ vdd gnd INVX1
XINVX1_150 i_add1[38] _228_ vdd gnd INVX1
XNOR2X1_75 vdd _228_ gnd _229_ _227_ NOR2X1
XOR2X2_34 _230_ _229_ vdd gnd w_C[38] OR2X2
XOAI21X1_55 gnd vdd i_add2[38] i_add1[38] _231_ _230_ OAI21X1
XINVX1_151 _231_ w_C[39] vdd gnd INVX1
XNAND2X1_73 vdd _232_ gnd i_add2[39] i_add1[39] NAND2X1
XNOR2X1_76 vdd i_add1[39] gnd _233_ i_add2[39] NOR2X1
XOAI21X1_56 gnd vdd _233_ _231_ w_C[40] _232_ OAI21X1
XNAND2X1_74 vdd _234_ gnd i_add2[40] i_add1[40] NAND2X1
XINVX1_152 _233_ _235_ vdd gnd INVX1
XINVX1_153 _229_ _236_ vdd gnd INVX1
XNAND2X1_75 vdd _237_ gnd _224_ _225_ NAND2X1
XNAND2X1_76 vdd _238_ gnd i_add2[36] i_add1[36] NAND2X1
XNAND2X1_77 vdd _239_ gnd i_add2[37] i_add1[37] NAND2X1
XNAND3X1_66 _239_ vdd gnd _238_ _223_ _240_ NAND3X1
XNAND2X1_78 vdd _241_ gnd _227_ _228_ NAND2X1
XNAND3X1_67 _241_ vdd gnd _237_ _240_ _242_ NAND3X1
XNAND3X1_68 _232_ vdd gnd _236_ _242_ _243_ NAND3X1
XOR2X2_35 _244_ i_add1[40] vdd gnd i_add2[40] OR2X2
XNAND3X1_69 _244_ vdd gnd _235_ _243_ _245_ NAND3X1
XNAND2X1_79 vdd w_C[41] gnd _234_ _245_ NAND2X1
XOR2X2_36 _246_ i_add1[41] vdd gnd i_add2[41] OR2X2
XNAND2X1_80 vdd _247_ gnd i_add2[41] i_add1[41] NAND2X1
XNAND3X1_70 _247_ vdd gnd _234_ _245_ _248_ NAND3X1
XAND2X2_57 vdd gnd _248_ _246_ w_C[42] AND2X2
XNAND2X1_81 vdd _249_ gnd i_add2[42] i_add1[42] NAND2X1
XOR2X2_37 _250_ i_add1[42] vdd gnd i_add2[42] OR2X2
XNAND3X1_71 _250_ vdd gnd _246_ _248_ _251_ NAND3X1
XNAND2X1_82 vdd w_C[43] gnd _249_ _251_ NAND2X1
XBUFX2_1 vdd gnd _252_[19] o_result[19] BUFX2
XBUFX2_2 vdd gnd _252_[20] o_result[20] BUFX2
XBUFX2_3 vdd gnd _252_[21] o_result[21] BUFX2
XBUFX2_4 vdd gnd _252_[22] o_result[22] BUFX2
XBUFX2_5 vdd gnd _252_[23] o_result[23] BUFX2
XBUFX2_6 vdd gnd _252_[24] o_result[24] BUFX2
XBUFX2_7 vdd gnd _252_[25] o_result[25] BUFX2
XBUFX2_8 vdd gnd _252_[26] o_result[26] BUFX2
XBUFX2_9 vdd gnd _252_[27] o_result[27] BUFX2
XBUFX2_10 vdd gnd _252_[28] o_result[28] BUFX2
XBUFX2_11 vdd gnd _252_[29] o_result[29] BUFX2
XBUFX2_12 vdd gnd _252_[30] o_result[30] BUFX2
XBUFX2_13 vdd gnd _252_[31] o_result[31] BUFX2
XBUFX2_14 vdd gnd _252_[32] o_result[32] BUFX2
XBUFX2_15 vdd gnd _252_[33] o_result[33] BUFX2
XBUFX2_16 vdd gnd _252_[34] o_result[34] BUFX2
XBUFX2_17 vdd gnd _252_[35] o_result[35] BUFX2
XBUFX2_18 vdd gnd _252_[36] o_result[36] BUFX2
XBUFX2_19 vdd gnd _252_[37] o_result[37] BUFX2
XBUFX2_20 vdd gnd _252_[38] o_result[38] BUFX2
XBUFX2_21 vdd gnd _252_[39] o_result[39] BUFX2
XBUFX2_22 vdd gnd _252_[40] o_result[40] BUFX2
XBUFX2_23 vdd gnd _252_[41] o_result[41] BUFX2
XBUFX2_24 vdd gnd _252_[42] o_result[42] BUFX2
XBUFX2_25 vdd gnd w_C[43] o_result[43] BUFX2
XBUFX2_26 vdd gnd _252_[0] o_result[0] BUFX2
XBUFX2_27 vdd gnd _252_[1] o_result[1] BUFX2
XBUFX2_28 vdd gnd _252_[2] o_result[2] BUFX2
XBUFX2_29 vdd gnd _252_[3] o_result[3] BUFX2
XBUFX2_30 vdd gnd _252_[4] o_result[4] BUFX2
XBUFX2_31 vdd gnd _252_[5] o_result[5] BUFX2
XBUFX2_32 vdd gnd _252_[6] o_result[6] BUFX2
XBUFX2_33 vdd gnd _252_[7] o_result[7] BUFX2
XBUFX2_34 vdd gnd _252_[8] o_result[8] BUFX2
XBUFX2_35 vdd gnd _252_[9] o_result[9] BUFX2
XBUFX2_36 vdd gnd _252_[10] o_result[10] BUFX2
XBUFX2_37 vdd gnd _252_[11] o_result[11] BUFX2
XBUFX2_38 vdd gnd _252_[12] o_result[12] BUFX2
XBUFX2_39 vdd gnd _252_[13] o_result[13] BUFX2
XBUFX2_40 vdd gnd _252_[14] o_result[14] BUFX2
XBUFX2_41 vdd gnd _252_[15] o_result[15] BUFX2
XBUFX2_42 vdd gnd _252_[16] o_result[16] BUFX2
XBUFX2_43 vdd gnd _252_[17] o_result[17] BUFX2
XBUFX2_44 vdd gnd _252_[18] o_result[18] BUFX2
XINVX1_154 w_C[4] _256_ vdd gnd INVX1
XOR2X2_38 _257_ i_add1[4] vdd gnd i_add2[4] OR2X2
XNAND2X1_83 vdd _258_ gnd i_add2[4] i_add1[4] NAND2X1
XNAND3X1_72 _258_ vdd gnd _256_ _257_ _259_ NAND3X1
XNOR2X1_77 vdd i_add1[4] gnd _253_ i_add2[4] NOR2X1
XAND2X2_58 vdd gnd i_add2[4] i_add1[4] _254_ AND2X2
XOAI21X1_57 gnd vdd _253_ _254_ _255_ w_C[4] OAI21X1
XNAND2X1_84 vdd _252_[4] gnd _255_ _259_ NAND2X1
XINVX1_155 w_C[5] _263_ vdd gnd INVX1
XOR2X2_39 _264_ i_add1[5] vdd gnd i_add2[5] OR2X2
XNAND2X1_85 vdd _265_ gnd i_add2[5] i_add1[5] NAND2X1
XNAND3X1_73 _265_ vdd gnd _263_ _264_ _266_ NAND3X1
XNOR2X1_78 vdd i_add1[5] gnd _260_ i_add2[5] NOR2X1
XAND2X2_59 vdd gnd i_add2[5] i_add1[5] _261_ AND2X2
XOAI21X1_58 gnd vdd _260_ _261_ _262_ w_C[5] OAI21X1
XNAND2X1_86 vdd _252_[5] gnd _262_ _266_ NAND2X1
XINVX1_156 w_C[6] _270_ vdd gnd INVX1