* XSpice netlist created from SPICE and liberty sources by spi2xspice.py
*SPICE netlist created from BLIF module cla_45bit by blif2BSpice
.subckt cla_45bit a_vdd a_gnd a_i_add1_0_ a_i_add1_1_ a_i_add1_2_ a_i_add1_3_ a_i_add1_4_ a_i_add1_5_ a_i_add1_6_ a_i_add1_7_ a_i_add1_8_ a_i_add1_9_ a_i_add1_10_ a_i_add1_11_ a_i_add1_12_ a_i_add1_13_ a_i_add1_14_ a_i_add1_15_ a_i_add1_16_ a_i_add1_17_ a_i_add1_18_ a_i_add1_19_ a_i_add1_20_ a_i_add1_21_ a_i_add1_22_ a_i_add1_23_ a_i_add1_24_ a_i_add1_25_ a_i_add1_26_ a_i_add1_27_ a_i_add1_28_ a_i_add1_29_ a_i_add1_30_ a_i_add1_31_ a_i_add1_32_ a_i_add1_33_ a_i_add1_34_ a_i_add1_35_ a_i_add1_36_ a_i_add1_37_ a_i_add1_38_ a_i_add1_39_ a_i_add1_40_ a_i_add1_41_ a_i_add1_42_ a_i_add1_43_ a_i_add1_44_ a_i_add2_0_ a_i_add2_1_ a_i_add2_2_ a_i_add2_3_ a_i_add2_4_ a_i_add2_5_ a_i_add2_6_ a_i_add2_7_ a_i_add2_8_ a_i_add2_9_ a_i_add2_10_ a_i_add2_11_ a_i_add2_12_ a_i_add2_13_ a_i_add2_14_ a_i_add2_15_ a_i_add2_16_ a_i_add2_17_ a_i_add2_18_ a_i_add2_19_ a_i_add2_20_ a_i_add2_21_ a_i_add2_22_ a_i_add2_23_ a_i_add2_24_ a_i_add2_25_ a_i_add2_26_ a_i_add2_27_ a_i_add2_28_ a_i_add2_29_ a_i_add2_30_ a_i_add2_31_ a_i_add2_32_ a_i_add2_33_ a_i_add2_34_ a_i_add2_35_ a_i_add2_36_ a_i_add2_37_ a_i_add2_38_ a_i_add2_39_ a_i_add2_40_ a_i_add2_41_ a_i_add2_42_ a_i_add2_43_ a_i_add2_44_ a_o_result_0_ a_o_result_1_ a_o_result_2_ a_o_result_3_ a_o_result_4_ a_o_result_5_ a_o_result_6_ a_o_result_7_ a_o_result_8_ a_o_result_9_ a_o_result_10_ a_o_result_11_ a_o_result_12_ a_o_result_13_ a_o_result_14_ a_o_result_15_ a_o_result_16_ a_o_result_17_ a_o_result_18_ a_o_result_19_ a_o_result_20_ a_o_result_21_ a_o_result_22_ a_o_result_23_ a_o_result_24_ a_o_result_25_ a_o_result_26_ a_o_result_27_ a_o_result_28_ a_o_result_29_ a_o_result_30_ a_o_result_31_ a_o_result_32_ a_o_result_33_ a_o_result_34_ a_o_result_35_ a_o_result_36_ a_o_result_37_ a_o_result_38_ a_o_result_39_ a_o_result_40_ a_o_result_41_ a_o_result_42_ a_o_result_43_ a_o_result_44_ a_o_result_45_
AOR2X2_1 [i_add2_12_ i_add1_12_] _325_ d_lut_OR2X2
ANAND2X1_1 [i_add2_12_ i_add1_12_] _326_ d_lut_NAND2X1
ANAND3X1_1 [_324_ _326_ _325_] _327_ d_lut_NAND3X1
ANOR2X1_1 [i_add2_12_ i_add1_12_] _321_ d_lut_NOR2X1
AAND2X2_1 [i_add2_12_ i_add1_12_] _322_ d_lut_AND2X2
AOAI21X1_1 [_321_ _322_ w_C_12_] _323_ d_lut_OAI21X1
ANAND2X1_2 [_323_ _327_] _264__12_ d_lut_NAND2X1
AINVX1_1 [w_C_13_] _331_ d_lut_INVX1
AOR2X2_2 [i_add2_13_ i_add1_13_] _332_ d_lut_OR2X2
ANAND2X1_3 [i_add2_13_ i_add1_13_] _333_ d_lut_NAND2X1
ANAND3X1_2 [_331_ _333_ _332_] _334_ d_lut_NAND3X1
ANOR2X1_2 [i_add2_13_ i_add1_13_] _328_ d_lut_NOR2X1
AAND2X2_2 [i_add2_13_ i_add1_13_] _329_ d_lut_AND2X2
AOAI21X1_2 [_328_ _329_ w_C_13_] _330_ d_lut_OAI21X1
ANAND2X1_4 [_330_ _334_] _264__13_ d_lut_NAND2X1
AINVX1_2 [w_C_14_] _338_ d_lut_INVX1
AOR2X2_3 [i_add2_14_ i_add1_14_] _339_ d_lut_OR2X2
ANAND2X1_5 [i_add2_14_ i_add1_14_] _340_ d_lut_NAND2X1
ANAND3X1_3 [_338_ _340_ _339_] _341_ d_lut_NAND3X1
ANOR2X1_3 [i_add2_14_ i_add1_14_] _335_ d_lut_NOR2X1
AAND2X2_3 [i_add2_14_ i_add1_14_] _336_ d_lut_AND2X2
AOAI21X1_3 [_335_ _336_ w_C_14_] _337_ d_lut_OAI21X1
ANAND2X1_6 [_337_ _341_] _264__14_ d_lut_NAND2X1
AINVX1_3 [w_C_15_] _345_ d_lut_INVX1
AOR2X2_4 [i_add2_15_ i_add1_15_] _346_ d_lut_OR2X2
ANAND2X1_7 [i_add2_15_ i_add1_15_] _347_ d_lut_NAND2X1
ANAND3X1_4 [_345_ _347_ _346_] _348_ d_lut_NAND3X1
ANOR2X1_4 [i_add2_15_ i_add1_15_] _342_ d_lut_NOR2X1
AAND2X2_4 [i_add2_15_ i_add1_15_] _343_ d_lut_AND2X2
AOAI21X1_4 [_342_ _343_ w_C_15_] _344_ d_lut_OAI21X1
ANAND2X1_8 [_344_ _348_] _264__15_ d_lut_NAND2X1
AINVX1_4 [w_C_16_] _352_ d_lut_INVX1
AOR2X2_5 [i_add2_16_ i_add1_16_] _353_ d_lut_OR2X2
ANAND2X1_9 [i_add2_16_ i_add1_16_] _354_ d_lut_NAND2X1
ANAND3X1_5 [_352_ _354_ _353_] _355_ d_lut_NAND3X1
ANOR2X1_5 [i_add2_16_ i_add1_16_] _349_ d_lut_NOR2X1
AAND2X2_5 [i_add2_16_ i_add1_16_] _350_ d_lut_AND2X2
AOAI21X1_5 [_349_ _350_ w_C_16_] _351_ d_lut_OAI21X1
ANAND2X1_10 [_351_ _355_] _264__16_ d_lut_NAND2X1
AINVX1_5 [w_C_17_] _359_ d_lut_INVX1
AOR2X2_6 [i_add2_17_ i_add1_17_] _360_ d_lut_OR2X2
ANAND2X1_11 [i_add2_17_ i_add1_17_] _361_ d_lut_NAND2X1
ANAND3X1_6 [_359_ _361_ _360_] _362_ d_lut_NAND3X1
ANOR2X1_6 [i_add2_17_ i_add1_17_] _356_ d_lut_NOR2X1
AAND2X2_6 [i_add2_17_ i_add1_17_] _357_ d_lut_AND2X2
AOAI21X1_6 [_356_ _357_ w_C_17_] _358_ d_lut_OAI21X1
ANAND2X1_12 [_358_ _362_] _264__17_ d_lut_NAND2X1
AINVX1_6 [w_C_18_] _366_ d_lut_INVX1
AOR2X2_7 [i_add2_18_ i_add1_18_] _367_ d_lut_OR2X2
ANAND2X1_13 [i_add2_18_ i_add1_18_] _368_ d_lut_NAND2X1
ANAND3X1_7 [_366_ _368_ _367_] _369_ d_lut_NAND3X1
ANOR2X1_7 [i_add2_18_ i_add1_18_] _363_ d_lut_NOR2X1
AAND2X2_7 [i_add2_18_ i_add1_18_] _364_ d_lut_AND2X2
AOAI21X1_7 [_363_ _364_ w_C_18_] _365_ d_lut_OAI21X1
ANAND2X1_14 [_365_ _369_] _264__18_ d_lut_NAND2X1
AINVX1_7 [w_C_19_] _373_ d_lut_INVX1
AOR2X2_8 [i_add2_19_ i_add1_19_] _374_ d_lut_OR2X2
ANAND2X1_15 [i_add2_19_ i_add1_19_] _375_ d_lut_NAND2X1
ANAND3X1_8 [_373_ _375_ _374_] _376_ d_lut_NAND3X1
ANOR2X1_8 [i_add2_19_ i_add1_19_] _370_ d_lut_NOR2X1
AAND2X2_8 [i_add2_19_ i_add1_19_] _371_ d_lut_AND2X2
AOAI21X1_8 [_370_ _371_ w_C_19_] _372_ d_lut_OAI21X1
ANAND2X1_16 [_372_ _376_] _264__19_ d_lut_NAND2X1
AINVX1_8 [w_C_20_] _380_ d_lut_INVX1
AOR2X2_9 [i_add2_20_ i_add1_20_] _381_ d_lut_OR2X2
ANAND2X1_17 [i_add2_20_ i_add1_20_] _382_ d_lut_NAND2X1
ANAND3X1_9 [_380_ _382_ _381_] _383_ d_lut_NAND3X1
ANOR2X1_9 [i_add2_20_ i_add1_20_] _377_ d_lut_NOR2X1
AAND2X2_9 [i_add2_20_ i_add1_20_] _378_ d_lut_AND2X2
AOAI21X1_9 [_377_ _378_ w_C_20_] _379_ d_lut_OAI21X1
ANAND2X1_18 [_379_ _383_] _264__20_ d_lut_NAND2X1
AINVX1_9 [w_C_21_] _387_ d_lut_INVX1
AOR2X2_10 [i_add2_21_ i_add1_21_] _388_ d_lut_OR2X2
ANAND2X1_19 [i_add2_21_ i_add1_21_] _389_ d_lut_NAND2X1
ANAND3X1_10 [_387_ _389_ _388_] _390_ d_lut_NAND3X1
ANOR2X1_10 [i_add2_21_ i_add1_21_] _384_ d_lut_NOR2X1
AAND2X2_10 [i_add2_21_ i_add1_21_] _385_ d_lut_AND2X2
AOAI21X1_10 [_384_ _385_ w_C_21_] _386_ d_lut_OAI21X1
ANAND2X1_20 [_386_ _390_] _264__21_ d_lut_NAND2X1
AINVX1_10 [w_C_22_] _394_ d_lut_INVX1
AOR2X2_11 [i_add2_22_ i_add1_22_] _395_ d_lut_OR2X2
ANAND2X1_21 [i_add2_22_ i_add1_22_] _396_ d_lut_NAND2X1
ANAND3X1_11 [_394_ _396_ _395_] _397_ d_lut_NAND3X1
ANOR2X1_11 [i_add2_22_ i_add1_22_] _391_ d_lut_NOR2X1
AAND2X2_11 [i_add2_22_ i_add1_22_] _392_ d_lut_AND2X2
AOAI21X1_11 [_391_ _392_ w_C_22_] _393_ d_lut_OAI21X1
ANAND2X1_22 [_393_ _397_] _264__22_ d_lut_NAND2X1
AINVX1_11 [w_C_23_] _401_ d_lut_INVX1
AOR2X2_12 [i_add2_23_ i_add1_23_] _402_ d_lut_OR2X2
ANAND2X1_23 [i_add2_23_ i_add1_23_] _403_ d_lut_NAND2X1
ANAND3X1_12 [_401_ _403_ _402_] _404_ d_lut_NAND3X1
ANOR2X1_12 [i_add2_23_ i_add1_23_] _398_ d_lut_NOR2X1
AAND2X2_12 [i_add2_23_ i_add1_23_] _399_ d_lut_AND2X2
AOAI21X1_12 [_398_ _399_ w_C_23_] _400_ d_lut_OAI21X1
ANAND2X1_24 [_400_ _404_] _264__23_ d_lut_NAND2X1
AINVX1_12 [w_C_24_] _408_ d_lut_INVX1
AOR2X2_13 [i_add2_24_ i_add1_24_] _409_ d_lut_OR2X2
ANAND2X1_25 [i_add2_24_ i_add1_24_] _410_ d_lut_NAND2X1
ANAND3X1_13 [_408_ _410_ _409_] _411_ d_lut_NAND3X1
ANOR2X1_13 [i_add2_24_ i_add1_24_] _405_ d_lut_NOR2X1
AAND2X2_13 [i_add2_24_ i_add1_24_] _406_ d_lut_AND2X2
AOAI21X1_13 [_405_ _406_ w_C_24_] _407_ d_lut_OAI21X1
ANAND2X1_26 [_407_ _411_] _264__24_ d_lut_NAND2X1
AINVX1_13 [w_C_25_] _415_ d_lut_INVX1
AOR2X2_14 [i_add2_25_ i_add1_25_] _416_ d_lut_OR2X2
ANAND2X1_27 [i_add2_25_ i_add1_25_] _417_ d_lut_NAND2X1
ANAND3X1_14 [_415_ _417_ _416_] _418_ d_lut_NAND3X1
ANOR2X1_14 [i_add2_25_ i_add1_25_] _412_ d_lut_NOR2X1
AAND2X2_14 [i_add2_25_ i_add1_25_] _413_ d_lut_AND2X2
AOAI21X1_14 [_412_ _413_ w_C_25_] _414_ d_lut_OAI21X1
ANAND2X1_28 [_414_ _418_] _264__25_ d_lut_NAND2X1
AINVX1_14 [w_C_26_] _422_ d_lut_INVX1
AOR2X2_15 [i_add2_26_ i_add1_26_] _423_ d_lut_OR2X2
ANAND2X1_29 [i_add2_26_ i_add1_26_] _424_ d_lut_NAND2X1
ANAND3X1_15 [_422_ _424_ _423_] _425_ d_lut_NAND3X1
ANOR2X1_15 [i_add2_26_ i_add1_26_] _419_ d_lut_NOR2X1
AAND2X2_15 [i_add2_26_ i_add1_26_] _420_ d_lut_AND2X2
AOAI21X1_15 [_419_ _420_ w_C_26_] _421_ d_lut_OAI21X1
ANAND2X1_30 [_421_ _425_] _264__26_ d_lut_NAND2X1
AINVX1_15 [w_C_27_] _429_ d_lut_INVX1
AOR2X2_16 [i_add2_27_ i_add1_27_] _430_ d_lut_OR2X2
ANAND2X1_31 [i_add2_27_ i_add1_27_] _431_ d_lut_NAND2X1
ANAND3X1_16 [_429_ _431_ _430_] _432_ d_lut_NAND3X1
ANOR2X1_16 [i_add2_27_ i_add1_27_] _426_ d_lut_NOR2X1
AAND2X2_16 [i_add2_27_ i_add1_27_] _427_ d_lut_AND2X2
AOAI21X1_16 [_426_ _427_ w_C_27_] _428_ d_lut_OAI21X1
ANAND2X1_32 [_428_ _432_] _264__27_ d_lut_NAND2X1
AINVX1_16 [w_C_28_] _436_ d_lut_INVX1
AOR2X2_17 [i_add2_28_ i_add1_28_] _437_ d_lut_OR2X2
ANAND2X1_33 [i_add2_28_ i_add1_28_] _438_ d_lut_NAND2X1
ANAND3X1_17 [_436_ _438_ _437_] _439_ d_lut_NAND3X1
ANOR2X1_17 [i_add2_28_ i_add1_28_] _433_ d_lut_NOR2X1
AAND2X2_17 [i_add2_28_ i_add1_28_] _434_ d_lut_AND2X2
AOAI21X1_17 [_433_ _434_ w_C_28_] _435_ d_lut_OAI21X1
ANAND2X1_34 [_435_ _439_] _264__28_ d_lut_NAND2X1
AINVX1_17 [w_C_29_] _443_ d_lut_INVX1
AOR2X2_18 [i_add2_29_ i_add1_29_] _444_ d_lut_OR2X2
ANAND2X1_35 [i_add2_29_ i_add1_29_] _445_ d_lut_NAND2X1
ANAND3X1_18 [_443_ _445_ _444_] _446_ d_lut_NAND3X1
ANOR2X1_18 [i_add2_29_ i_add1_29_] _440_ d_lut_NOR2X1
AAND2X2_18 [i_add2_29_ i_add1_29_] _441_ d_lut_AND2X2
AOAI21X1_18 [_440_ _441_ w_C_29_] _442_ d_lut_OAI21X1
ANAND2X1_36 [_442_ _446_] _264__29_ d_lut_NAND2X1
AINVX1_18 [w_C_30_] _450_ d_lut_INVX1
AOR2X2_19 [i_add2_30_ i_add1_30_] _451_ d_lut_OR2X2
ANAND2X1_37 [i_add2_30_ i_add1_30_] _452_ d_lut_NAND2X1
ANAND3X1_19 [_450_ _452_ _451_] _453_ d_lut_NAND3X1
ANOR2X1_19 [i_add2_30_ i_add1_30_] _447_ d_lut_NOR2X1
AAND2X2_19 [i_add2_30_ i_add1_30_] _448_ d_lut_AND2X2
AOAI21X1_19 [_447_ _448_ w_C_30_] _449_ d_lut_OAI21X1
ANAND2X1_38 [_449_ _453_] _264__30_ d_lut_NAND2X1
AINVX1_19 [w_C_31_] _457_ d_lut_INVX1
AOR2X2_20 [i_add2_31_ i_add1_31_] _458_ d_lut_OR2X2
ANAND2X1_39 [i_add2_31_ i_add1_31_] _459_ d_lut_NAND2X1
ANAND3X1_20 [_457_ _459_ _458_] _460_ d_lut_NAND3X1
ANOR2X1_20 [i_add2_31_ i_add1_31_] _454_ d_lut_NOR2X1
AAND2X2_20 [i_add2_31_ i_add1_31_] _455_ d_lut_AND2X2
AOAI21X1_20 [_454_ _455_ w_C_31_] _456_ d_lut_OAI21X1
ANAND2X1_40 [_456_ _460_] _264__31_ d_lut_NAND2X1
AINVX1_20 [w_C_32_] _464_ d_lut_INVX1
AOR2X2_21 [i_add2_32_ i_add1_32_] _465_ d_lut_OR2X2
ANAND2X1_41 [i_add2_32_ i_add1_32_] _466_ d_lut_NAND2X1
ANAND3X1_21 [_464_ _466_ _465_] _467_ d_lut_NAND3X1
ANOR2X1_21 [i_add2_32_ i_add1_32_] _461_ d_lut_NOR2X1
AAND2X2_21 [i_add2_32_ i_add1_32_] _462_ d_lut_AND2X2
AOAI21X1_21 [_461_ _462_ w_C_32_] _463_ d_lut_OAI21X1
ANAND2X1_42 [_463_ _467_] _264__32_ d_lut_NAND2X1
AINVX1_21 [w_C_33_] _471_ d_lut_INVX1
AOR2X2_22 [i_add2_33_ i_add1_33_] _472_ d_lut_OR2X2
ANAND2X1_43 [i_add2_33_ i_add1_33_] _473_ d_lut_NAND2X1
ANAND3X1_22 [_471_ _473_ _472_] _474_ d_lut_NAND3X1
ANOR2X1_22 [i_add2_33_ i_add1_33_] _468_ d_lut_NOR2X1
AAND2X2_22 [i_add2_33_ i_add1_33_] _469_ d_lut_AND2X2
AOAI21X1_22 [_468_ _469_ w_C_33_] _470_ d_lut_OAI21X1
ANAND2X1_44 [_470_ _474_] _264__33_ d_lut_NAND2X1
AINVX1_22 [w_C_34_] _478_ d_lut_INVX1
AOR2X2_23 [i_add2_34_ i_add1_34_] _479_ d_lut_OR2X2
ANAND2X1_45 [i_add2_34_ i_add1_34_] _480_ d_lut_NAND2X1
ANAND3X1_23 [_478_ _480_ _479_] _481_ d_lut_NAND3X1
ANOR2X1_23 [i_add2_34_ i_add1_34_] _475_ d_lut_NOR2X1
AAND2X2_23 [i_add2_34_ i_add1_34_] _476_ d_lut_AND2X2
AOAI21X1_23 [_475_ _476_ w_C_34_] _477_ d_lut_OAI21X1
ANAND2X1_46 [_477_ _481_] _264__34_ d_lut_NAND2X1
AINVX1_23 [w_C_35_] _485_ d_lut_INVX1
AOR2X2_24 [i_add2_35_ i_add1_35_] _486_ d_lut_OR2X2
ANAND2X1_47 [i_add2_35_ i_add1_35_] _487_ d_lut_NAND2X1
ANAND3X1_24 [_485_ _487_ _486_] _488_ d_lut_NAND3X1
ANOR2X1_24 [i_add2_35_ i_add1_35_] _482_ d_lut_NOR2X1
AAND2X2_24 [i_add2_35_ i_add1_35_] _483_ d_lut_AND2X2
AOAI21X1_24 [_482_ _483_ w_C_35_] _484_ d_lut_OAI21X1
ANAND2X1_48 [_484_ _488_] _264__35_ d_lut_NAND2X1
AINVX1_24 [w_C_36_] _492_ d_lut_INVX1
AOR2X2_25 [i_add2_36_ i_add1_36_] _493_ d_lut_OR2X2
ANAND2X1_49 [i_add2_36_ i_add1_36_] _494_ d_lut_NAND2X1
ANAND3X1_25 [_492_ _494_ _493_] _495_ d_lut_NAND3X1
ANOR2X1_25 [i_add2_36_ i_add1_36_] _489_ d_lut_NOR2X1
AAND2X2_25 [i_add2_36_ i_add1_36_] _490_ d_lut_AND2X2
AOAI21X1_25 [_489_ _490_ w_C_36_] _491_ d_lut_OAI21X1
ANAND2X1_50 [_491_ _495_] _264__36_ d_lut_NAND2X1
AINVX1_25 [w_C_37_] _499_ d_lut_INVX1
AOR2X2_26 [i_add2_37_ i_add1_37_] _500_ d_lut_OR2X2
ANAND2X1_51 [i_add2_37_ i_add1_37_] _501_ d_lut_NAND2X1
ANAND3X1_26 [_499_ _501_ _500_] _502_ d_lut_NAND3X1
ANOR2X1_26 [i_add2_37_ i_add1_37_] _496_ d_lut_NOR2X1
AAND2X2_26 [i_add2_37_ i_add1_37_] _497_ d_lut_AND2X2
AOAI21X1_26 [_496_ _497_ w_C_37_] _498_ d_lut_OAI21X1
ANAND2X1_52 [_498_ _502_] _264__37_ d_lut_NAND2X1
AINVX1_26 [w_C_38_] _506_ d_lut_INVX1
AOR2X2_27 [i_add2_38_ i_add1_38_] _507_ d_lut_OR2X2
ANAND2X1_53 [i_add2_38_ i_add1_38_] _508_ d_lut_NAND2X1
ANAND3X1_27 [_506_ _508_ _507_] _509_ d_lut_NAND3X1
ANOR2X1_27 [i_add2_38_ i_add1_38_] _503_ d_lut_NOR2X1
AAND2X2_27 [i_add2_38_ i_add1_38_] _504_ d_lut_AND2X2
AOAI21X1_27 [_503_ _504_ w_C_38_] _505_ d_lut_OAI21X1
ANAND2X1_54 [_505_ _509_] _264__38_ d_lut_NAND2X1
AINVX1_27 [w_C_39_] _513_ d_lut_INVX1
AOR2X2_28 [i_add2_39_ i_add1_39_] _514_ d_lut_OR2X2
ANAND2X1_55 [i_add2_39_ i_add1_39_] _515_ d_lut_NAND2X1
ANAND3X1_28 [_513_ _515_ _514_] _516_ d_lut_NAND3X1
ANOR2X1_28 [i_add2_39_ i_add1_39_] _510_ d_lut_NOR2X1
AAND2X2_28 [i_add2_39_ i_add1_39_] _511_ d_lut_AND2X2
AOAI21X1_28 [_510_ _511_ w_C_39_] _512_ d_lut_OAI21X1
ANAND2X1_56 [_512_ _516_] _264__39_ d_lut_NAND2X1
AINVX1_28 [w_C_40_] _520_ d_lut_INVX1
AOR2X2_29 [i_add2_40_ i_add1_40_] _521_ d_lut_OR2X2
ANAND2X1_57 [i_add2_40_ i_add1_40_] _522_ d_lut_NAND2X1
ANAND3X1_29 [_520_ _522_ _521_] _523_ d_lut_NAND3X1
ANOR2X1_29 [i_add2_40_ i_add1_40_] _517_ d_lut_NOR2X1
AAND2X2_29 [i_add2_40_ i_add1_40_] _518_ d_lut_AND2X2
AOAI21X1_29 [_517_ _518_ w_C_40_] _519_ d_lut_OAI21X1
ANAND2X1_58 [_519_ _523_] _264__40_ d_lut_NAND2X1
AINVX1_29 [w_C_41_] _527_ d_lut_INVX1
AOR2X2_30 [i_add2_41_ i_add1_41_] _528_ d_lut_OR2X2
ANAND2X1_59 [i_add2_41_ i_add1_41_] _529_ d_lut_NAND2X1
ANAND3X1_30 [_527_ _529_ _528_] _530_ d_lut_NAND3X1
ANOR2X1_30 [i_add2_41_ i_add1_41_] _524_ d_lut_NOR2X1
AAND2X2_30 [i_add2_41_ i_add1_41_] _525_ d_lut_AND2X2
AOAI21X1_30 [_524_ _525_ w_C_41_] _526_ d_lut_OAI21X1
ANAND2X1_60 [_526_ _530_] _264__41_ d_lut_NAND2X1
AINVX1_30 [w_C_42_] _534_ d_lut_INVX1
AOR2X2_31 [i_add2_42_ i_add1_42_] _535_ d_lut_OR2X2
ANAND2X1_61 [i_add2_42_ i_add1_42_] _536_ d_lut_NAND2X1
ANAND3X1_31 [_534_ _536_ _535_] _537_ d_lut_NAND3X1
ANOR2X1_31 [i_add2_42_ i_add1_42_] _531_ d_lut_NOR2X1
AAND2X2_31 [i_add2_42_ i_add1_42_] _532_ d_lut_AND2X2
AOAI21X1_31 [_531_ _532_ w_C_42_] _533_ d_lut_OAI21X1
ANAND2X1_62 [_533_ _537_] _264__42_ d_lut_NAND2X1
AINVX1_31 [w_C_43_] _541_ d_lut_INVX1
AOR2X2_32 [i_add2_43_ i_add1_43_] _542_ d_lut_OR2X2
ANAND2X1_63 [i_add2_43_ i_add1_43_] _543_ d_lut_NAND2X1
ANAND3X1_32 [_541_ _543_ _542_] _544_ d_lut_NAND3X1
ANOR2X1_32 [i_add2_43_ i_add1_43_] _538_ d_lut_NOR2X1
AAND2X2_32 [i_add2_43_ i_add1_43_] _539_ d_lut_AND2X2
AOAI21X1_32 [_538_ _539_ w_C_43_] _540_ d_lut_OAI21X1
ANAND2X1_64 [_540_ _544_] _264__43_ d_lut_NAND2X1
AINVX1_32 [w_C_44_] _548_ d_lut_INVX1
AOR2X2_33 [i_add2_44_ i_add1_44_] _549_ d_lut_OR2X2
ANAND2X1_65 [i_add2_44_ i_add1_44_] _550_ d_lut_NAND2X1
ANAND3X1_33 [_548_ _550_ _549_] _551_ d_lut_NAND3X1
ANOR2X1_33 [i_add2_44_ i_add1_44_] _545_ d_lut_NOR2X1
AAND2X2_33 [i_add2_44_ i_add1_44_] _546_ d_lut_AND2X2
AOAI21X1_33 [_545_ _546_ w_C_44_] _547_ d_lut_OAI21X1
ANAND2X1_66 [_547_ _551_] _264__44_ d_lut_NAND2X1
AINVX1_33 [gnd] _555_ d_lut_INVX1
AOR2X2_34 [i_add2_0_ i_add1_0_] _556_ d_lut_OR2X2
ANAND2X1_67 [i_add2_0_ i_add1_0_] _557_ d_lut_NAND2X1
ANAND3X1_34 [_555_ _557_ _556_] _558_ d_lut_NAND3X1
ANOR2X1_34 [i_add2_0_ i_add1_0_] _552_ d_lut_NOR2X1
AAND2X2_34 [i_add2_0_ i_add1_0_] _553_ d_lut_AND2X2
AOAI21X1_34 [_552_ _553_ gnd] _554_ d_lut_OAI21X1
ANAND2X1_68 [_554_ _558_] _264__0_ d_lut_NAND2X1
AINVX1_34 [w_C_1_] _562_ d_lut_INVX1
AOR2X2_35 [i_add2_1_ i_add1_1_] _563_ d_lut_OR2X2
ANAND2X1_69 [i_add2_1_ i_add1_1_] _564_ d_lut_NAND2X1
ANAND3X1_35 [_562_ _564_ _563_] _565_ d_lut_NAND3X1
ANOR2X1_35 [i_add2_1_ i_add1_1_] _559_ d_lut_NOR2X1
AAND2X2_35 [i_add2_1_ i_add1_1_] _560_ d_lut_AND2X2
AOAI21X1_35 [_559_ _560_ w_C_1_] _561_ d_lut_OAI21X1
ANAND2X1_70 [_561_ _565_] _264__1_ d_lut_NAND2X1
AINVX1_35 [w_C_2_] _569_ d_lut_INVX1
AOR2X2_36 [i_add2_2_ i_add1_2_] _570_ d_lut_OR2X2
ANAND2X1_71 [i_add2_2_ i_add1_2_] _571_ d_lut_NAND2X1
ANAND3X1_36 [_569_ _571_ _570_] _572_ d_lut_NAND3X1
ANOR2X1_36 [i_add2_2_ i_add1_2_] _566_ d_lut_NOR2X1
AAND2X2_36 [i_add2_2_ i_add1_2_] _567_ d_lut_AND2X2
AOAI21X1_36 [_566_ _567_ w_C_2_] _568_ d_lut_OAI21X1
ANAND2X1_72 [_568_ _572_] _264__2_ d_lut_NAND2X1
AINVX1_36 [w_C_3_] _576_ d_lut_INVX1
AOR2X2_37 [i_add2_3_ i_add1_3_] _577_ d_lut_OR2X2
ANAND2X1_73 [i_add2_3_ i_add1_3_] _578_ d_lut_NAND2X1
ANAND3X1_37 [_576_ _578_ _577_] _579_ d_lut_NAND3X1
ANOR2X1_37 [i_add2_3_ i_add1_3_] _573_ d_lut_NOR2X1
AAND2X2_37 [i_add2_3_ i_add1_3_] _574_ d_lut_AND2X2
AOAI21X1_37 [_573_ _574_ w_C_3_] _575_ d_lut_OAI21X1
ANAND2X1_74 [_575_ _579_] _264__3_ d_lut_NAND2X1
ANAND3X1_38 [_249_ _253_ _252_] _254_ d_lut_NAND3X1
ANAND3X1_39 [_248_ _244_ _254_] _255_ d_lut_NAND3X1
AOR2X2_38 [i_add2_42_ i_add1_42_] _256_ d_lut_OR2X2
ANAND3X1_40 [_247_ _256_ _255_] _257_ d_lut_NAND3X1
ANAND2X1_75 [_246_ _257_] w_C_43_ d_lut_NAND2X1
AOR2X2_39 [i_add2_43_ i_add1_43_] _258_ d_lut_OR2X2
ANAND2X1_76 [i_add2_43_ i_add1_43_] _259_ d_lut_NAND2X1
ANAND3X1_41 [_246_ _259_ _257_] _260_ d_lut_NAND3X1
AAND2X2_38 [_260_ _258_] w_C_44_ d_lut_AND2X2
ANAND2X1_77 [i_add2_44_ i_add1_44_] _261_ d_lut_NAND2X1
AOR2X2_40 [i_add2_44_ i_add1_44_] _262_ d_lut_OR2X2
ANAND3X1_42 [_258_ _262_ _260_] _263_ d_lut_NAND3X1
ANAND2X1_78 [_261_ _263_] w_C_45_ d_lut_NAND2X1
ANAND2X1_79 [i_add2_0_ i_add1_0_] _0_ d_lut_NAND2X1
AINVX1_37 [_0_] w_C_1_ d_lut_INVX1
ANAND2X1_80 [i_add2_1_ i_add1_1_] _1_ d_lut_NAND2X1
ANAND2X1_81 [_0_ _1_] _2_ d_lut_NAND2X1
AOAI21X1_38 [i_add2_1_ i_add1_1_ _2_] _3_ d_lut_OAI21X1
AINVX1_38 [_3_] w_C_2_ d_lut_INVX1
ANAND2X1_82 [i_add2_2_ i_add1_2_] _4_ d_lut_NAND2X1
AOR2X2_41 [i_add2_1_ i_add1_1_] _5_ d_lut_OR2X2
AOR2X2_42 [i_add2_2_ i_add1_2_] _6_ d_lut_OR2X2
ANAND3X1_43 [_5_ _6_ _2_] _7_ d_lut_NAND3X1
ANAND2X1_83 [_4_ _7_] w_C_3_ d_lut_NAND2X1
AINVX1_39 [i_add2_3_] _8_ d_lut_INVX1
AINVX1_40 [i_add1_3_] _9_ d_lut_INVX1
ANAND2X1_84 [_8_ _9_] _10_ d_lut_NAND2X1
ANAND2X1_85 [i_add2_3_ i_add1_3_] _11_ d_lut_NAND2X1
ANAND3X1_44 [_4_ _11_ _7_] _12_ d_lut_NAND3X1
AAND2X2_39 [_12_ _10_] w_C_4_ d_lut_AND2X2
ANAND2X1_86 [i_add2_4_ i_add1_4_] _13_ d_lut_NAND2X1
AOR2X2_43 [i_add2_4_ i_add1_4_] _14_ d_lut_OR2X2
ANAND3X1_45 [_10_ _14_ _12_] _15_ d_lut_NAND3X1
ANAND2X1_87 [_13_ _15_] w_C_5_ d_lut_NAND2X1
ANOR2X1_38 [i_add2_5_ i_add1_5_] _16_ d_lut_NOR2X1
AINVX1_41 [_16_] _17_ d_lut_INVX1
ANAND2X1_88 [i_add2_5_ i_add1_5_] _18_ d_lut_NAND2X1
ANAND3X1_46 [_13_ _18_ _15_] _19_ d_lut_NAND3X1
AAND2X2_40 [_19_ _17_] w_C_6_ d_lut_AND2X2
AINVX1_42 [i_add2_6_] _20_ d_lut_INVX1
AINVX1_43 [i_add1_6_] _21_ d_lut_INVX1
ANOR2X1_39 [i_add2_6_ i_add1_6_] _22_ d_lut_NOR2X1
AINVX1_44 [_22_] _23_ d_lut_INVX1
ANAND3X1_47 [_17_ _23_ _19_] _24_ d_lut_NAND3X1
AOAI21X1_39 [_20_ _21_ _24_] w_C_7_ d_lut_OAI21X1
ANOR2X1_40 [_20_ _21_] _25_ d_lut_NOR2X1
AINVX1_45 [_25_] _26_ d_lut_INVX1
AAND2X2_41 [i_add2_7_ i_add1_7_] _27_ d_lut_AND2X2
AINVX1_46 [_27_] _28_ d_lut_INVX1
ANAND3X1_48 [_26_ _28_ _24_] _29_ d_lut_NAND3X1
AOAI21X1_40 [i_add2_7_ i_add1_7_ _29_] _30_ d_lut_OAI21X1
AINVX1_47 [_30_] w_C_8_ d_lut_INVX1
AINVX1_48 [i_add2_8_] _31_ d_lut_INVX1
AINVX1_49 [i_add1_8_] _32_ d_lut_INVX1
ANOR2X1_41 [i_add2_7_ i_add1_7_] _33_ d_lut_NOR2X1
AINVX1_50 [_33_] _34_ d_lut_INVX1
ANOR2X1_42 [i_add2_8_ i_add1_8_] _35_ d_lut_NOR2X1
AINVX1_51 [_35_] _36_ d_lut_INVX1
ANAND3X1_49 [_34_ _36_ _29_] _37_ d_lut_NAND3X1
AOAI21X1_41 [_31_ _32_ _37_] w_C_9_ d_lut_OAI21X1
ANOR2X1_43 [_31_ _32_] _38_ d_lut_NOR2X1
AINVX1_52 [_38_] _39_ d_lut_INVX1
AAND2X2_42 [i_add2_9_ i_add1_9_] _40_ d_lut_AND2X2
AINVX1_53 [_40_] _41_ d_lut_INVX1
ANAND3X1_50 [_39_ _41_ _37_] _42_ d_lut_NAND3X1
AOAI21X1_42 [i_add2_9_ i_add1_9_ _42_] _43_ d_lut_OAI21X1
AINVX1_54 [_43_] w_C_10_ d_lut_INVX1
AINVX1_55 [i_add2_10_] _44_ d_lut_INVX1
AINVX1_56 [i_add1_10_] _45_ d_lut_INVX1
ANOR2X1_44 [i_add2_9_ i_add1_9_] _46_ d_lut_NOR2X1
AINVX1_57 [_46_] _47_ d_lut_INVX1
ANOR2X1_45 [i_add2_10_ i_add1_10_] _48_ d_lut_NOR2X1
AINVX1_58 [_48_] _49_ d_lut_INVX1
ANAND3X1_51 [_47_ _49_ _42_] _50_ d_lut_NAND3X1
AOAI21X1_43 [_44_ _45_ _50_] w_C_11_ d_lut_OAI21X1
ANOR2X1_46 [_44_ _45_] _51_ d_lut_NOR2X1
AINVX1_59 [_51_] _52_ d_lut_INVX1
AAND2X2_43 [i_add2_11_ i_add1_11_] _53_ d_lut_AND2X2
AINVX1_60 [_53_] _54_ d_lut_INVX1
ANAND3X1_52 [_52_ _54_ _50_] _55_ d_lut_NAND3X1
AOAI21X1_44 [i_add2_11_ i_add1_11_ _55_] _56_ d_lut_OAI21X1
AINVX1_61 [_56_] w_C_12_ d_lut_INVX1
AINVX1_62 [i_add2_12_] _57_ d_lut_INVX1
AINVX1_63 [i_add1_12_] _58_ d_lut_INVX1
ANOR2X1_47 [i_add2_11_ i_add1_11_] _59_ d_lut_NOR2X1
AINVX1_64 [_59_] _60_ d_lut_INVX1
ANOR2X1_48 [i_add2_12_ i_add1_12_] _61_ d_lut_NOR2X1
AINVX1_65 [_61_] _62_ d_lut_INVX1
ANAND3X1_53 [_60_ _62_ _55_] _63_ d_lut_NAND3X1
AOAI21X1_45 [_57_ _58_ _63_] w_C_13_ d_lut_OAI21X1
ANOR2X1_49 [_57_ _58_] _64_ d_lut_NOR2X1
AINVX1_66 [_64_] _65_ d_lut_INVX1
AAND2X2_44 [i_add2_13_ i_add1_13_] _66_ d_lut_AND2X2
AINVX1_67 [_66_] _67_ d_lut_INVX1
ANAND3X1_54 [_65_ _67_ _63_] _68_ d_lut_NAND3X1
AOAI21X1_46 [i_add2_13_ i_add1_13_ _68_] _69_ d_lut_OAI21X1
AINVX1_68 [_69_] w_C_14_ d_lut_INVX1
AINVX1_69 [i_add2_14_] _70_ d_lut_INVX1
AINVX1_70 [i_add1_14_] _71_ d_lut_INVX1
ANOR2X1_50 [i_add2_13_ i_add1_13_] _72_ d_lut_NOR2X1
AINVX1_71 [_72_] _73_ d_lut_INVX1
ANOR2X1_51 [i_add2_14_ i_add1_14_] _74_ d_lut_NOR2X1
AINVX1_72 [_74_] _75_ d_lut_INVX1
ANAND3X1_55 [_73_ _75_ _68_] _76_ d_lut_NAND3X1
AOAI21X1_47 [_70_ _71_ _76_] w_C_15_ d_lut_OAI21X1
ANOR2X1_52 [_70_ _71_] _77_ d_lut_NOR2X1
AINVX1_73 [_77_] _78_ d_lut_INVX1
AAND2X2_45 [i_add2_15_ i_add1_15_] _79_ d_lut_AND2X2
AINVX1_74 [_79_] _80_ d_lut_INVX1
ANAND3X1_56 [_78_ _80_ _76_] _81_ d_lut_NAND3X1
AOAI21X1_48 [i_add2_15_ i_add1_15_ _81_] _82_ d_lut_OAI21X1
AINVX1_75 [_82_] w_C_16_ d_lut_INVX1
AINVX1_76 [i_add2_16_] _83_ d_lut_INVX1
AINVX1_77 [i_add1_16_] _84_ d_lut_INVX1
ANOR2X1_53 [_83_ _84_] _85_ d_lut_NOR2X1
AINVX1_78 [_85_] _86_ d_lut_INVX1
ANOR2X1_54 [i_add2_15_ i_add1_15_] _87_ d_lut_NOR2X1
AINVX1_79 [_87_] _88_ d_lut_INVX1
ANOR2X1_55 [i_add2_16_ i_add1_16_] _89_ d_lut_NOR2X1
AINVX1_80 [_89_] _90_ d_lut_INVX1
ANAND3X1_57 [_88_ _90_ _81_] _91_ d_lut_NAND3X1
AAND2X2_46 [_91_ _86_] _92_ d_lut_AND2X2
AINVX1_81 [_92_] w_C_17_ d_lut_INVX1
AAND2X2_47 [i_add2_17_ i_add1_17_] _93_ d_lut_AND2X2
AINVX1_82 [_93_] _94_ d_lut_INVX1
ANAND3X1_58 [_86_ _94_ _91_] _95_ d_lut_NAND3X1
AOAI21X1_49 [i_add2_17_ i_add1_17_ _95_] _96_ d_lut_OAI21X1
AINVX1_83 [_96_] w_C_18_ d_lut_INVX1
AINVX1_84 [i_add2_18_] _97_ d_lut_INVX1
AINVX1_85 [i_add1_18_] _98_ d_lut_INVX1
ANOR2X1_56 [_97_ _98_] _99_ d_lut_NOR2X1
AINVX1_86 [_99_] _100_ d_lut_INVX1
ANOR2X1_57 [i_add2_17_ i_add1_17_] _101_ d_lut_NOR2X1
AINVX1_87 [_101_] _102_ d_lut_INVX1
ANOR2X1_58 [i_add2_18_ i_add1_18_] _103_ d_lut_NOR2X1
AINVX1_88 [_103_] _104_ d_lut_INVX1
ANAND3X1_59 [_102_ _104_ _95_] _105_ d_lut_NAND3X1
AAND2X2_48 [_105_ _100_] _106_ d_lut_AND2X2
AINVX1_89 [_106_] w_C_19_ d_lut_INVX1
AAND2X2_49 [i_add2_19_ i_add1_19_] _107_ d_lut_AND2X2
AINVX1_90 [_107_] _108_ d_lut_INVX1
ANAND3X1_60 [_100_ _108_ _105_] _109_ d_lut_NAND3X1
AOAI21X1_50 [i_add2_19_ i_add1_19_ _109_] _110_ d_lut_OAI21X1
AINVX1_91 [_110_] w_C_20_ d_lut_INVX1
AINVX1_92 [i_add2_20_] _111_ d_lut_INVX1
AINVX1_93 [i_add1_20_] _112_ d_lut_INVX1
ANOR2X1_59 [_111_ _112_] _113_ d_lut_NOR2X1
AINVX1_94 [_113_] _114_ d_lut_INVX1
ANOR2X1_60 [i_add2_19_ i_add1_19_] _115_ d_lut_NOR2X1
AINVX1_95 [_115_] _116_ d_lut_INVX1
ANOR2X1_61 [i_add2_20_ i_add1_20_] _117_ d_lut_NOR2X1
AINVX1_96 [_117_] _118_ d_lut_INVX1
ANAND3X1_61 [_116_ _118_ _109_] _119_ d_lut_NAND3X1
AAND2X2_50 [_119_ _114_] _120_ d_lut_AND2X2
AINVX1_97 [_120_] w_C_21_ d_lut_INVX1
AAND2X2_51 [i_add2_21_ i_add1_21_] _121_ d_lut_AND2X2
AINVX1_98 [_121_] _122_ d_lut_INVX1
ANAND3X1_62 [_114_ _122_ _119_] _123_ d_lut_NAND3X1
AOAI21X1_51 [i_add2_21_ i_add1_21_ _123_] _124_ d_lut_OAI21X1
AINVX1_99 [_124_] w_C_22_ d_lut_INVX1
AINVX1_100 [i_add2_22_] _125_ d_lut_INVX1
AINVX1_101 [i_add1_22_] _126_ d_lut_INVX1
ANOR2X1_62 [_125_ _126_] _127_ d_lut_NOR2X1
AINVX1_102 [_127_] _128_ d_lut_INVX1
ANOR2X1_63 [i_add2_21_ i_add1_21_] _129_ d_lut_NOR2X1
AINVX1_103 [_129_] _130_ d_lut_INVX1
ANOR2X1_64 [i_add2_22_ i_add1_22_] _131_ d_lut_NOR2X1
AINVX1_104 [_131_] _132_ d_lut_INVX1
ANAND3X1_63 [_130_ _132_ _123_] _133_ d_lut_NAND3X1
AAND2X2_52 [_133_ _128_] _134_ d_lut_AND2X2
AINVX1_105 [_134_] w_C_23_ d_lut_INVX1
AAND2X2_53 [i_add2_23_ i_add1_23_] _135_ d_lut_AND2X2
AINVX1_106 [_135_] _136_ d_lut_INVX1
ANAND3X1_64 [_128_ _136_ _133_] _137_ d_lut_NAND3X1
AOAI21X1_52 [i_add2_23_ i_add1_23_ _137_] _138_ d_lut_OAI21X1
AINVX1_107 [_138_] w_C_24_ d_lut_INVX1
AINVX1_108 [i_add2_24_] _139_ d_lut_INVX1
AINVX1_109 [i_add1_24_] _140_ d_lut_INVX1
ANOR2X1_65 [_139_ _140_] _141_ d_lut_NOR2X1
AINVX1_110 [_141_] _142_ d_lut_INVX1
ANOR2X1_66 [i_add2_23_ i_add1_23_] _143_ d_lut_NOR2X1
AINVX1_111 [_143_] _144_ d_lut_INVX1
ANOR2X1_67 [i_add2_24_ i_add1_24_] _145_ d_lut_NOR2X1
AINVX1_112 [_145_] _146_ d_lut_INVX1
ANAND3X1_65 [_144_ _146_ _137_] _147_ d_lut_NAND3X1
AAND2X2_54 [_147_ _142_] _148_ d_lut_AND2X2
AINVX1_113 [_148_] w_C_25_ d_lut_INVX1
AAND2X2_55 [i_add2_25_ i_add1_25_] _149_ d_lut_AND2X2
AINVX1_114 [_149_] _150_ d_lut_INVX1
ANAND3X1_66 [_142_ _150_ _147_] _151_ d_lut_NAND3X1
AOAI21X1_53 [i_add2_25_ i_add1_25_ _151_] _152_ d_lut_OAI21X1
AINVX1_115 [_152_] w_C_26_ d_lut_INVX1
AINVX1_116 [i_add2_26_] _153_ d_lut_INVX1
AINVX1_117 [i_add1_26_] _154_ d_lut_INVX1
ANOR2X1_68 [_153_ _154_] _155_ d_lut_NOR2X1
AINVX1_118 [_155_] _156_ d_lut_INVX1
ANOR2X1_69 [i_add2_25_ i_add1_25_] _157_ d_lut_NOR2X1
AINVX1_119 [_157_] _158_ d_lut_INVX1
ANOR2X1_70 [i_add2_26_ i_add1_26_] _159_ d_lut_NOR2X1
AINVX1_120 [_159_] _160_ d_lut_INVX1
ANAND3X1_67 [_158_ _160_ _151_] _161_ d_lut_NAND3X1
AAND2X2_56 [_161_ _156_] _162_ d_lut_AND2X2
AINVX1_121 [_162_] w_C_27_ d_lut_INVX1
AAND2X2_57 [i_add2_27_ i_add1_27_] _163_ d_lut_AND2X2
AINVX1_122 [_163_] _164_ d_lut_INVX1
ANAND3X1_68 [_156_ _164_ _161_] _165_ d_lut_NAND3X1
AOAI21X1_54 [i_add2_27_ i_add1_27_ _165_] _166_ d_lut_OAI21X1
AINVX1_123 [_166_] w_C_28_ d_lut_INVX1
AINVX1_124 [i_add2_28_] _167_ d_lut_INVX1
AINVX1_125 [i_add1_28_] _168_ d_lut_INVX1
ANOR2X1_71 [_167_ _168_] _169_ d_lut_NOR2X1
AINVX1_126 [_169_] _170_ d_lut_INVX1
ANOR2X1_72 [i_add2_27_ i_add1_27_] _171_ d_lut_NOR2X1
AINVX1_127 [_171_] _172_ d_lut_INVX1
ANOR2X1_73 [i_add2_28_ i_add1_28_] _173_ d_lut_NOR2X1
AINVX1_128 [_173_] _174_ d_lut_INVX1
ANAND3X1_69 [_172_ _174_ _165_] _175_ d_lut_NAND3X1
AAND2X2_58 [_175_ _170_] _176_ d_lut_AND2X2
AINVX1_129 [_176_] w_C_29_ d_lut_INVX1
AAND2X2_59 [i_add2_29_ i_add1_29_] _177_ d_lut_AND2X2
AINVX1_130 [_177_] _178_ d_lut_INVX1
ANAND3X1_70 [_170_ _178_ _175_] _179_ d_lut_NAND3X1
AOAI21X1_55 [i_add2_29_ i_add1_29_ _179_] _180_ d_lut_OAI21X1
AINVX1_131 [_180_] w_C_30_ d_lut_INVX1
AINVX1_132 [i_add2_30_] _181_ d_lut_INVX1
AINVX1_133 [i_add1_30_] _182_ d_lut_INVX1
ANOR2X1_74 [_181_ _182_] _183_ d_lut_NOR2X1
AINVX1_134 [_183_] _184_ d_lut_INVX1
ANOR2X1_75 [i_add2_29_ i_add1_29_] _185_ d_lut_NOR2X1
AINVX1_135 [_185_] _186_ d_lut_INVX1
ANOR2X1_76 [i_add2_30_ i_add1_30_] _187_ d_lut_NOR2X1
AINVX1_136 [_187_] _188_ d_lut_INVX1
ANAND3X1_71 [_186_ _188_ _179_] _189_ d_lut_NAND3X1
AAND2X2_60 [_189_ _184_] _190_ d_lut_AND2X2
AINVX1_137 [_190_] w_C_31_ d_lut_INVX1
AAND2X2_61 [i_add2_31_ i_add1_31_] _191_ d_lut_AND2X2
AINVX1_138 [_191_] _192_ d_lut_INVX1
ANAND3X1_72 [_184_ _192_ _189_] _193_ d_lut_NAND3X1
AOAI21X1_56 [i_add2_31_ i_add1_31_ _193_] _194_ d_lut_OAI21X1
AINVX1_139 [_194_] w_C_32_ d_lut_INVX1
AINVX1_140 [i_add2_32_] _195_ d_lut_INVX1
AINVX1_141 [i_add1_32_] _196_ d_lut_INVX1
ANOR2X1_77 [_195_ _196_] _197_ d_lut_NOR2X1
AINVX1_142 [_197_] _198_ d_lut_INVX1
ANOR2X1_78 [i_add2_31_ i_add1_31_] _199_ d_lut_NOR2X1
AINVX1_143 [_199_] _200_ d_lut_INVX1
ANOR2X1_79 [i_add2_32_ i_add1_32_] _201_ d_lut_NOR2X1
AINVX1_144 [_201_] _202_ d_lut_INVX1
ANAND3X1_73 [_200_ _202_ _193_] _203_ d_lut_NAND3X1
AAND2X2_62 [_203_ _198_] _204_ d_lut_AND2X2
AINVX1_145 [_204_] w_C_33_ d_lut_INVX1
AAND2X2_63 [i_add2_33_ i_add1_33_] _205_ d_lut_AND2X2
AINVX1_146 [_205_] _206_ d_lut_INVX1
ANAND3X1_74 [_198_ _206_ _203_] _207_ d_lut_NAND3X1
AOAI21X1_57 [i_add2_33_ i_add1_33_ _207_] _208_ d_lut_OAI21X1
AINVX1_147 [_208_] w_C_34_ d_lut_INVX1
AINVX1_148 [i_add2_34_] _209_ d_lut_INVX1
AINVX1_149 [i_add1_34_] _210_ d_lut_INVX1
ANOR2X1_80 [_209_ _210_] _211_ d_lut_NOR2X1
AINVX1_150 [_211_] _212_ d_lut_INVX1
ANOR2X1_81 [i_add2_33_ i_add1_33_] _213_ d_lut_NOR2X1
AINVX1_151 [_213_] _214_ d_lut_INVX1
ANOR2X1_82 [i_add2_34_ i_add1_34_] _215_ d_lut_NOR2X1
AINVX1_152 [_215_] _216_ d_lut_INVX1
ANAND3X1_75 [_214_ _216_ _207_] _217_ d_lut_NAND3X1
AAND2X2_64 [_217_ _212_] _218_ d_lut_AND2X2
AINVX1_153 [_218_] w_C_35_ d_lut_INVX1
AAND2X2_65 [i_add2_35_ i_add1_35_] _219_ d_lut_AND2X2
AINVX1_154 [_219_] _220_ d_lut_INVX1
ANAND3X1_76 [_212_ _220_ _217_] _221_ d_lut_NAND3X1
AOAI21X1_58 [i_add2_35_ i_add1_35_ _221_] _222_ d_lut_OAI21X1
AINVX1_155 [_222_] w_C_36_ d_lut_INVX1
ANAND2X1_89 [i_add2_36_ i_add1_36_] _223_ d_lut_NAND2X1
ANOR2X1_83 [i_add2_36_ i_add1_36_] _224_ d_lut_NOR2X1
AOAI21X1_59 [_224_ _222_ _223_] w_C_37_ d_lut_OAI21X1
AOR2X2_44 [i_add2_37_ i_add1_37_] _225_ d_lut_OR2X2
ANOR2X1_84 [i_add2_35_ i_add1_35_] _226_ d_lut_NOR2X1
AINVX1_156 [_226_] _227_ d_lut_INVX1
AINVX1_157 [_224_] _228_ d_lut_INVX1
ANAND3X1_77 [_227_ _228_ _221_] _229_ d_lut_NAND3X1
ANAND2X1_90 [i_add2_37_ i_add1_37_] _230_ d_lut_NAND2X1
ANAND3X1_78 [_223_ _230_ _229_] _231_ d_lut_NAND3X1
AAND2X2_66 [_231_ _225_] w_C_38_ d_lut_AND2X2
AINVX1_158 [i_add2_38_] _232_ d_lut_INVX1
AINVX1_159 [i_add1_38_] _233_ d_lut_INVX1
ANAND2X1_91 [_232_ _233_] _234_ d_lut_NAND2X1
ANAND3X1_79 [_225_ _234_ _231_] _235_ d_lut_NAND3X1