* XSpice netlist created from SPICE and liberty sources by spi2xspice.py
*SPICE netlist created from BLIF module cla_61bit by blif2BSpice
.subckt cla_61bit a_vdd a_gnd a_i_add1_0_ a_i_add1_1_ a_i_add1_2_ a_i_add1_3_ a_i_add1_4_ a_i_add1_5_ a_i_add1_6_ a_i_add1_7_ a_i_add1_8_ a_i_add1_9_ a_i_add1_10_ a_i_add1_11_ a_i_add1_12_ a_i_add1_13_ a_i_add1_14_ a_i_add1_15_ a_i_add1_16_ a_i_add1_17_ a_i_add1_18_ a_i_add1_19_ a_i_add1_20_ a_i_add1_21_ a_i_add1_22_ a_i_add1_23_ a_i_add1_24_ a_i_add1_25_ a_i_add1_26_ a_i_add1_27_ a_i_add1_28_ a_i_add1_29_ a_i_add1_30_ a_i_add1_31_ a_i_add1_32_ a_i_add1_33_ a_i_add1_34_ a_i_add1_35_ a_i_add1_36_ a_i_add1_37_ a_i_add1_38_ a_i_add1_39_ a_i_add1_40_ a_i_add1_41_ a_i_add1_42_ a_i_add1_43_ a_i_add1_44_ a_i_add1_45_ a_i_add1_46_ a_i_add1_47_ a_i_add1_48_ a_i_add1_49_ a_i_add1_50_ a_i_add1_51_ a_i_add1_52_ a_i_add1_53_ a_i_add1_54_ a_i_add1_55_ a_i_add1_56_ a_i_add1_57_ a_i_add1_58_ a_i_add1_59_ a_i_add1_60_ a_i_add2_0_ a_i_add2_1_ a_i_add2_2_ a_i_add2_3_ a_i_add2_4_ a_i_add2_5_ a_i_add2_6_ a_i_add2_7_ a_i_add2_8_ a_i_add2_9_ a_i_add2_10_ a_i_add2_11_ a_i_add2_12_ a_i_add2_13_ a_i_add2_14_ a_i_add2_15_ a_i_add2_16_ a_i_add2_17_ a_i_add2_18_ a_i_add2_19_ a_i_add2_20_ a_i_add2_21_ a_i_add2_22_ a_i_add2_23_ a_i_add2_24_ a_i_add2_25_ a_i_add2_26_ a_i_add2_27_ a_i_add2_28_ a_i_add2_29_ a_i_add2_30_ a_i_add2_31_ a_i_add2_32_ a_i_add2_33_ a_i_add2_34_ a_i_add2_35_ a_i_add2_36_ a_i_add2_37_ a_i_add2_38_ a_i_add2_39_ a_i_add2_40_ a_i_add2_41_ a_i_add2_42_ a_i_add2_43_ a_i_add2_44_ a_i_add2_45_ a_i_add2_46_ a_i_add2_47_ a_i_add2_48_ a_i_add2_49_ a_i_add2_50_ a_i_add2_51_ a_i_add2_52_ a_i_add2_53_ a_i_add2_54_ a_i_add2_55_ a_i_add2_56_ a_i_add2_57_ a_i_add2_58_ a_i_add2_59_ a_i_add2_60_ a_o_result_0_ a_o_result_1_ a_o_result_2_ a_o_result_3_ a_o_result_4_ a_o_result_5_ a_o_result_6_ a_o_result_7_ a_o_result_8_ a_o_result_9_ a_o_result_10_ a_o_result_11_ a_o_result_12_ a_o_result_13_ a_o_result_14_ a_o_result_15_ a_o_result_16_ a_o_result_17_ a_o_result_18_ a_o_result_19_ a_o_result_20_ a_o_result_21_ a_o_result_22_ a_o_result_23_ a_o_result_24_ a_o_result_25_ a_o_result_26_ a_o_result_27_ a_o_result_28_ a_o_result_29_ a_o_result_30_ a_o_result_31_ a_o_result_32_ a_o_result_33_ a_o_result_34_ a_o_result_35_ a_o_result_36_ a_o_result_37_ a_o_result_38_ a_o_result_39_ a_o_result_40_ a_o_result_41_ a_o_result_42_ a_o_result_43_ a_o_result_44_ a_o_result_45_ a_o_result_46_ a_o_result_47_ a_o_result_48_ a_o_result_49_ a_o_result_50_ a_o_result_51_ a_o_result_52_ a_o_result_53_ a_o_result_54_ a_o_result_55_ a_o_result_56_ a_o_result_57_ a_o_result_58_ a_o_result_59_ a_o_result_60_ a_o_result_61_
ANOR2X1_1 [_233_ _234_] _240_ d_lut_NOR2X1
AINVX1_1 [_240_] _241_ d_lut_INVX1
AAND2X2_1 [i_add2_41_ i_add1_41_] _242_ d_lut_AND2X2
AINVX1_2 [_242_] _243_ d_lut_INVX1
ANAND3X1_1 [_241_ _243_ _239_] _244_ d_lut_NAND3X1
AOAI21X1_1 [i_add2_41_ i_add1_41_ _244_] _245_ d_lut_OAI21X1
AINVX1_3 [_245_] w_C_42_ d_lut_INVX1
AINVX1_4 [i_add2_42_] _246_ d_lut_INVX1
AINVX1_5 [i_add1_42_] _247_ d_lut_INVX1
ANOR2X1_2 [i_add2_41_ i_add1_41_] _248_ d_lut_NOR2X1
AINVX1_6 [_248_] _249_ d_lut_INVX1
ANOR2X1_3 [i_add2_42_ i_add1_42_] _250_ d_lut_NOR2X1
AINVX1_7 [_250_] _251_ d_lut_INVX1
ANAND3X1_2 [_249_ _251_ _244_] _252_ d_lut_NAND3X1
AOAI21X1_2 [_246_ _247_ _252_] w_C_43_ d_lut_OAI21X1
ANOR2X1_4 [_246_ _247_] _253_ d_lut_NOR2X1
AINVX1_8 [_253_] _254_ d_lut_INVX1
AAND2X2_2 [i_add2_43_ i_add1_43_] _255_ d_lut_AND2X2
AINVX1_9 [_255_] _256_ d_lut_INVX1
ANAND3X1_3 [_254_ _256_ _252_] _257_ d_lut_NAND3X1
AOAI21X1_3 [i_add2_43_ i_add1_43_ _257_] _258_ d_lut_OAI21X1
AINVX1_10 [_258_] w_C_44_ d_lut_INVX1
AINVX1_11 [i_add2_44_] _259_ d_lut_INVX1
AINVX1_12 [i_add1_44_] _260_ d_lut_INVX1
ANOR2X1_5 [i_add2_43_ i_add1_43_] _261_ d_lut_NOR2X1
AINVX1_13 [_261_] _262_ d_lut_INVX1
ANOR2X1_6 [i_add2_44_ i_add1_44_] _263_ d_lut_NOR2X1
AINVX1_14 [_263_] _264_ d_lut_INVX1
ANAND3X1_4 [_262_ _264_ _257_] _265_ d_lut_NAND3X1
AOAI21X1_4 [_259_ _260_ _265_] w_C_45_ d_lut_OAI21X1
ANOR2X1_7 [_259_ _260_] _266_ d_lut_NOR2X1
AINVX1_15 [_266_] _267_ d_lut_INVX1
AAND2X2_3 [i_add2_45_ i_add1_45_] _268_ d_lut_AND2X2
AINVX1_16 [_268_] _269_ d_lut_INVX1
ANAND3X1_5 [_267_ _269_ _265_] _270_ d_lut_NAND3X1
AOAI21X1_5 [i_add2_45_ i_add1_45_ _270_] _271_ d_lut_OAI21X1
AINVX1_17 [_271_] w_C_46_ d_lut_INVX1
AINVX1_18 [i_add2_46_] _272_ d_lut_INVX1
AINVX1_19 [i_add1_46_] _273_ d_lut_INVX1
ANOR2X1_8 [i_add2_45_ i_add1_45_] _274_ d_lut_NOR2X1
AINVX1_20 [_274_] _275_ d_lut_INVX1
ANOR2X1_9 [i_add2_46_ i_add1_46_] _276_ d_lut_NOR2X1
AINVX1_21 [_276_] _277_ d_lut_INVX1
ANAND3X1_6 [_275_ _277_ _270_] _278_ d_lut_NAND3X1
AOAI21X1_6 [_272_ _273_ _278_] w_C_47_ d_lut_OAI21X1
ANOR2X1_10 [_272_ _273_] _279_ d_lut_NOR2X1
AINVX1_22 [_279_] _280_ d_lut_INVX1
AAND2X2_4 [i_add2_47_ i_add1_47_] _281_ d_lut_AND2X2
AINVX1_23 [_281_] _282_ d_lut_INVX1
ANAND3X1_7 [_280_ _282_ _278_] _283_ d_lut_NAND3X1
AOAI21X1_7 [i_add2_47_ i_add1_47_ _283_] _284_ d_lut_OAI21X1
AINVX1_24 [_284_] w_C_48_ d_lut_INVX1
AINVX1_25 [i_add2_48_] _285_ d_lut_INVX1
AINVX1_26 [i_add1_48_] _286_ d_lut_INVX1
ANOR2X1_11 [i_add2_47_ i_add1_47_] _287_ d_lut_NOR2X1
AINVX1_27 [_287_] _288_ d_lut_INVX1
ANOR2X1_12 [i_add2_48_ i_add1_48_] _289_ d_lut_NOR2X1
AINVX1_28 [_289_] _290_ d_lut_INVX1
ANAND3X1_8 [_288_ _290_ _283_] _291_ d_lut_NAND3X1
AOAI21X1_8 [_285_ _286_ _291_] w_C_49_ d_lut_OAI21X1
ANOR2X1_13 [i_add2_49_ i_add1_49_] _292_ d_lut_NOR2X1
AINVX1_29 [_292_] _293_ d_lut_INVX1
ANOR2X1_14 [_285_ _286_] _294_ d_lut_NOR2X1
AINVX1_30 [_294_] _295_ d_lut_INVX1
ANAND2X1_1 [i_add2_49_ i_add1_49_] _296_ d_lut_NAND2X1
ANAND3X1_9 [_295_ _296_ _291_] _297_ d_lut_NAND3X1
AAND2X2_5 [_297_ _293_] w_C_50_ d_lut_AND2X2
AINVX1_31 [i_add2_50_] _298_ d_lut_INVX1
AINVX1_32 [i_add1_50_] _299_ d_lut_INVX1
ANAND2X1_2 [_298_ _299_] _300_ d_lut_NAND2X1
ANAND3X1_10 [_293_ _300_ _297_] _301_ d_lut_NAND3X1
AOAI21X1_9 [_298_ _299_ _301_] w_C_51_ d_lut_OAI21X1
AINVX1_33 [i_add2_51_] _302_ d_lut_INVX1
AINVX1_34 [i_add1_51_] _303_ d_lut_INVX1
AOAI21X1_10 [i_add2_51_ i_add1_51_ w_C_51_] _304_ d_lut_OAI21X1
AOAI21X1_11 [_302_ _303_ _304_] w_C_52_ d_lut_OAI21X1
AINVX1_35 [i_add2_52_] _305_ d_lut_INVX1
AINVX1_36 [i_add1_52_] _306_ d_lut_INVX1
ANOR2X1_15 [_305_ _306_] _307_ d_lut_NOR2X1
AOR2X2_1 [w_C_52_ _307_] _308_ d_lut_OR2X2
AOAI21X1_12 [i_add2_52_ i_add1_52_ _308_] _309_ d_lut_OAI21X1
AINVX1_37 [_309_] w_C_53_ d_lut_INVX1
ANAND2X1_3 [i_add2_53_ i_add1_53_] _310_ d_lut_NAND2X1
ANOR2X1_16 [i_add2_53_ i_add1_53_] _311_ d_lut_NOR2X1
AOAI21X1_13 [_311_ _309_ _310_] w_C_54_ d_lut_OAI21X1
AINVX1_38 [i_add2_54_] _312_ d_lut_INVX1
AINVX1_39 [i_add1_54_] _313_ d_lut_INVX1
AINVX1_40 [_311_] _314_ d_lut_INVX1
AINVX1_41 [_307_] _315_ d_lut_INVX1
ANAND2X1_4 [_302_ _303_] _316_ d_lut_NAND2X1
ANAND2X1_5 [i_add2_50_ i_add1_50_] _317_ d_lut_NAND2X1
ANAND2X1_6 [i_add2_51_ i_add1_51_] _318_ d_lut_NAND2X1
ANAND3X1_11 [_317_ _318_ _301_] _319_ d_lut_NAND3X1
ANAND2X1_7 [_305_ _306_] _320_ d_lut_NAND2X1
ANAND3X1_12 [_316_ _320_ _319_] _321_ d_lut_NAND3X1
ANAND3X1_13 [_315_ _310_ _321_] _322_ d_lut_NAND3X1
ANAND2X1_8 [_312_ _313_] _323_ d_lut_NAND2X1
ANAND3X1_14 [_314_ _323_ _322_] _324_ d_lut_NAND3X1
AOAI21X1_14 [_312_ _313_ _324_] w_C_55_ d_lut_OAI21X1
AINVX1_42 [i_add2_55_] _325_ d_lut_INVX1
AINVX1_43 [i_add1_55_] _326_ d_lut_INVX1
AOAI21X1_15 [i_add2_55_ i_add1_55_ w_C_55_] _327_ d_lut_OAI21X1
AOAI21X1_16 [_325_ _326_ _327_] w_C_56_ d_lut_OAI21X1
ANOR2X1_17 [_325_ _326_] _328_ d_lut_NOR2X1
AINVX1_44 [_328_] _329_ d_lut_INVX1
AAND2X2_6 [i_add2_56_ i_add1_56_] _330_ d_lut_AND2X2
AINVX1_45 [_330_] _331_ d_lut_INVX1
ANAND3X1_15 [_329_ _331_ _327_] _332_ d_lut_NAND3X1
AOAI21X1_17 [i_add2_56_ i_add1_56_ _332_] _333_ d_lut_OAI21X1
AINVX1_46 [_333_] w_C_57_ d_lut_INVX1
ANAND2X1_9 [i_add2_57_ i_add1_57_] _334_ d_lut_NAND2X1
ANOR2X1_18 [i_add2_57_ i_add1_57_] _335_ d_lut_NOR2X1
AOAI21X1_18 [_335_ _333_ _334_] w_C_58_ d_lut_OAI21X1
ANAND2X1_10 [i_add2_58_ i_add1_58_] _336_ d_lut_NAND2X1
AINVX1_47 [_335_] _337_ d_lut_INVX1
ANOR2X1_19 [i_add2_55_ i_add1_55_] _338_ d_lut_NOR2X1
AINVX1_48 [_338_] _339_ d_lut_INVX1
ANOR2X1_20 [_312_ _313_] _340_ d_lut_NOR2X1
AINVX1_49 [_340_] _341_ d_lut_INVX1
ANAND3X1_16 [_341_ _329_ _324_] _342_ d_lut_NAND3X1
ANOR2X1_21 [i_add2_56_ i_add1_56_] _343_ d_lut_NOR2X1
AINVX1_50 [_343_] _344_ d_lut_INVX1
ANAND3X1_17 [_339_ _344_ _342_] _345_ d_lut_NAND3X1
ANAND3X1_18 [_331_ _334_ _345_] _346_ d_lut_NAND3X1
AOR2X2_2 [i_add2_58_ i_add1_58_] _347_ d_lut_OR2X2
ANAND3X1_19 [_337_ _347_ _346_] _348_ d_lut_NAND3X1
ANAND2X1_11 [_336_ _348_] w_C_59_ d_lut_NAND2X1
AOR2X2_3 [i_add2_59_ i_add1_59_] _349_ d_lut_OR2X2
ANAND2X1_12 [i_add2_59_ i_add1_59_] _350_ d_lut_NAND2X1
ANAND3X1_20 [_336_ _350_ _348_] _351_ d_lut_NAND3X1
AAND2X2_7 [_351_ _349_] w_C_60_ d_lut_AND2X2
ANAND2X1_13 [i_add2_60_ i_add1_60_] _352_ d_lut_NAND2X1
AOR2X2_4 [i_add2_60_ i_add1_60_] _353_ d_lut_OR2X2
ANAND3X1_21 [_349_ _353_ _351_] _354_ d_lut_NAND3X1
ANAND2X1_14 [_352_ _354_] w_C_61_ d_lut_NAND2X1
ANAND2X1_15 [i_add2_0_ i_add1_0_] _0_ d_lut_NAND2X1
AINVX1_51 [_0_] w_C_1_ d_lut_INVX1
ANAND2X1_16 [i_add2_1_ i_add1_1_] _1_ d_lut_NAND2X1
ANAND2X1_17 [_0_ _1_] _2_ d_lut_NAND2X1
AOAI21X1_19 [i_add2_1_ i_add1_1_ _2_] _3_ d_lut_OAI21X1
AINVX1_52 [_3_] w_C_2_ d_lut_INVX1
ANAND2X1_18 [i_add2_2_ i_add1_2_] _4_ d_lut_NAND2X1
AOR2X2_5 [i_add2_1_ i_add1_1_] _5_ d_lut_OR2X2
AOR2X2_6 [i_add2_2_ i_add1_2_] _6_ d_lut_OR2X2
ANAND3X1_22 [_5_ _6_ _2_] _7_ d_lut_NAND3X1
ANAND2X1_19 [_4_ _7_] w_C_3_ d_lut_NAND2X1
AOR2X2_7 [i_add2_3_ i_add1_3_] _8_ d_lut_OR2X2
ANAND2X1_20 [i_add2_3_ i_add1_3_] _9_ d_lut_NAND2X1
ANAND3X1_23 [_4_ _9_ _7_] _10_ d_lut_NAND3X1
AAND2X2_8 [_10_ _8_] w_C_4_ d_lut_AND2X2
ANAND2X1_21 [i_add2_4_ i_add1_4_] _11_ d_lut_NAND2X1
AOR2X2_8 [i_add2_4_ i_add1_4_] _12_ d_lut_OR2X2
ANAND3X1_24 [_8_ _12_ _10_] _13_ d_lut_NAND3X1
ANAND2X1_22 [_11_ _13_] w_C_5_ d_lut_NAND2X1
ANOR2X1_22 [i_add2_5_ i_add1_5_] _14_ d_lut_NOR2X1
AINVX1_53 [_14_] _15_ d_lut_INVX1
ANAND2X1_23 [i_add2_5_ i_add1_5_] _16_ d_lut_NAND2X1
ANAND3X1_25 [_11_ _16_ _13_] _17_ d_lut_NAND3X1
AAND2X2_9 [_17_ _15_] w_C_6_ d_lut_AND2X2
AINVX1_54 [i_add2_6_] _18_ d_lut_INVX1
AINVX1_55 [i_add1_6_] _19_ d_lut_INVX1
ANOR2X1_23 [i_add2_6_ i_add1_6_] _20_ d_lut_NOR2X1
AINVX1_56 [_20_] _21_ d_lut_INVX1
ANAND3X1_26 [_15_ _21_ _17_] _22_ d_lut_NAND3X1
AOAI21X1_20 [_18_ _19_ _22_] w_C_7_ d_lut_OAI21X1
ANOR2X1_24 [i_add2_7_ i_add1_7_] _23_ d_lut_NOR2X1
AINVX1_57 [_23_] _24_ d_lut_INVX1
ANOR2X1_25 [_18_ _19_] _25_ d_lut_NOR2X1
AINVX1_58 [_25_] _26_ d_lut_INVX1
AAND2X2_10 [i_add2_7_ i_add1_7_] _27_ d_lut_AND2X2
AINVX1_59 [_27_] _28_ d_lut_INVX1
ANAND3X1_27 [_26_ _28_ _22_] _29_ d_lut_NAND3X1
AAND2X2_11 [_29_ _24_] w_C_8_ d_lut_AND2X2
AAND2X2_12 [i_add2_8_ i_add1_8_] _30_ d_lut_AND2X2
AINVX1_60 [_30_] _31_ d_lut_INVX1
ANOR2X1_26 [i_add2_8_ i_add1_8_] _32_ d_lut_NOR2X1
AINVX1_61 [_32_] _33_ d_lut_INVX1
ANAND3X1_28 [_24_ _33_ _29_] _34_ d_lut_NAND3X1
AAND2X2_13 [_34_ _31_] _35_ d_lut_AND2X2
AINVX1_62 [_35_] w_C_9_ d_lut_INVX1
AAND2X2_14 [i_add2_9_ i_add1_9_] _36_ d_lut_AND2X2
AINVX1_63 [_36_] _37_ d_lut_INVX1
ANOR2X1_27 [i_add2_9_ i_add1_9_] _38_ d_lut_NOR2X1
AOAI21X1_21 [_38_ _35_ _37_] w_C_10_ d_lut_OAI21X1
AAND2X2_15 [i_add2_10_ i_add1_10_] _39_ d_lut_AND2X2
AINVX1_64 [_39_] _40_ d_lut_INVX1
AINVX1_65 [_38_] _41_ d_lut_INVX1
ANAND3X1_29 [_31_ _37_ _34_] _42_ d_lut_NAND3X1
ANOR2X1_28 [i_add2_10_ i_add1_10_] _43_ d_lut_NOR2X1
AINVX1_66 [_43_] _44_ d_lut_INVX1
ANAND3X1_30 [_41_ _44_ _42_] _45_ d_lut_NAND3X1
AAND2X2_16 [_45_ _40_] _46_ d_lut_AND2X2
AINVX1_67 [_46_] w_C_11_ d_lut_INVX1
AAND2X2_17 [i_add2_11_ i_add1_11_] _47_ d_lut_AND2X2
AINVX1_68 [_47_] _48_ d_lut_INVX1
ANAND3X1_31 [_40_ _48_ _45_] _49_ d_lut_NAND3X1
AOAI21X1_22 [i_add2_11_ i_add1_11_ _49_] _50_ d_lut_OAI21X1
AINVX1_69 [_50_] w_C_12_ d_lut_INVX1
AINVX1_70 [i_add2_12_] _51_ d_lut_INVX1
ABUFX2_1 [_355__0_] o_result_0_ d_lut_BUFX2
ABUFX2_2 [_355__1_] o_result_1_ d_lut_BUFX2
ABUFX2_3 [_355__2_] o_result_2_ d_lut_BUFX2
ABUFX2_4 [_355__3_] o_result_3_ d_lut_BUFX2
ABUFX2_5 [_355__4_] o_result_4_ d_lut_BUFX2
ABUFX2_6 [_355__5_] o_result_5_ d_lut_BUFX2
ABUFX2_7 [_355__6_] o_result_6_ d_lut_BUFX2
ABUFX2_8 [_355__7_] o_result_7_ d_lut_BUFX2
ABUFX2_9 [_355__8_] o_result_8_ d_lut_BUFX2
ABUFX2_10 [_355__9_] o_result_9_ d_lut_BUFX2
ABUFX2_11 [_355__10_] o_result_10_ d_lut_BUFX2
ABUFX2_12 [_355__11_] o_result_11_ d_lut_BUFX2
ABUFX2_13 [_355__12_] o_result_12_ d_lut_BUFX2
ABUFX2_14 [_355__13_] o_result_13_ d_lut_BUFX2
ABUFX2_15 [_355__14_] o_result_14_ d_lut_BUFX2
ABUFX2_16 [_355__15_] o_result_15_ d_lut_BUFX2
ABUFX2_17 [_355__16_] o_result_16_ d_lut_BUFX2
ABUFX2_18 [_355__17_] o_result_17_ d_lut_BUFX2
ABUFX2_19 [_355__18_] o_result_18_ d_lut_BUFX2
ABUFX2_20 [_355__19_] o_result_19_ d_lut_BUFX2
ABUFX2_21 [_355__20_] o_result_20_ d_lut_BUFX2
ABUFX2_22 [_355__21_] o_result_21_ d_lut_BUFX2
ABUFX2_23 [_355__22_] o_result_22_ d_lut_BUFX2
ABUFX2_24 [_355__23_] o_result_23_ d_lut_BUFX2
ABUFX2_25 [_355__24_] o_result_24_ d_lut_BUFX2
ABUFX2_26 [_355__25_] o_result_25_ d_lut_BUFX2
ABUFX2_27 [_355__26_] o_result_26_ d_lut_BUFX2
ABUFX2_28 [_355__27_] o_result_27_ d_lut_BUFX2
ABUFX2_29 [_355__28_] o_result_28_ d_lut_BUFX2
ABUFX2_30 [_355__29_] o_result_29_ d_lut_BUFX2
ABUFX2_31 [_355__30_] o_result_30_ d_lut_BUFX2
ABUFX2_32 [_355__31_] o_result_31_ d_lut_BUFX2
ABUFX2_33 [_355__32_] o_result_32_ d_lut_BUFX2
ABUFX2_34 [_355__33_] o_result_33_ d_lut_BUFX2
ABUFX2_35 [_355__34_] o_result_34_ d_lut_BUFX2
ABUFX2_36 [_355__35_] o_result_35_ d_lut_BUFX2
ABUFX2_37 [_355__36_] o_result_36_ d_lut_BUFX2
ABUFX2_38 [_355__37_] o_result_37_ d_lut_BUFX2
ABUFX2_39 [_355__38_] o_result_38_ d_lut_BUFX2
ABUFX2_40 [_355__39_] o_result_39_ d_lut_BUFX2
ABUFX2_41 [_355__40_] o_result_40_ d_lut_BUFX2
ABUFX2_42 [_355__41_] o_result_41_ d_lut_BUFX2
ABUFX2_43 [_355__42_] o_result_42_ d_lut_BUFX2
ABUFX2_44 [_355__43_] o_result_43_ d_lut_BUFX2
ABUFX2_45 [_355__44_] o_result_44_ d_lut_BUFX2
ABUFX2_46 [_355__45_] o_result_45_ d_lut_BUFX2
ABUFX2_47 [_355__46_] o_result_46_ d_lut_BUFX2
ABUFX2_48 [_355__47_] o_result_47_ d_lut_BUFX2
ABUFX2_49 [_355__48_] o_result_48_ d_lut_BUFX2
ABUFX2_50 [_355__49_] o_result_49_ d_lut_BUFX2
ABUFX2_51 [_355__50_] o_result_50_ d_lut_BUFX2
ABUFX2_52 [_355__51_] o_result_51_ d_lut_BUFX2
ABUFX2_53 [_355__52_] o_result_52_ d_lut_BUFX2
ABUFX2_54 [_355__53_] o_result_53_ d_lut_BUFX2
ABUFX2_55 [_355__54_] o_result_54_ d_lut_BUFX2
ABUFX2_56 [_355__55_] o_result_55_ d_lut_BUFX2
ABUFX2_57 [_355__56_] o_result_56_ d_lut_BUFX2
ABUFX2_58 [_355__57_] o_result_57_ d_lut_BUFX2
ABUFX2_59 [_355__58_] o_result_58_ d_lut_BUFX2
ABUFX2_60 [_355__59_] o_result_59_ d_lut_BUFX2
ABUFX2_61 [_355__60_] o_result_60_ d_lut_BUFX2
ABUFX2_62 [w_C_61_] o_result_61_ d_lut_BUFX2
AINVX1_71 [w_C_4_] _359_ d_lut_INVX1
AOR2X2_9 [i_add2_4_ i_add1_4_] _360_ d_lut_OR2X2
ANAND2X1_24 [i_add2_4_ i_add1_4_] _361_ d_lut_NAND2X1
ANAND3X1_32 [_359_ _361_ _360_] _362_ d_lut_NAND3X1
ANOR2X1_29 [i_add2_4_ i_add1_4_] _356_ d_lut_NOR2X1
AAND2X2_18 [i_add2_4_ i_add1_4_] _357_ d_lut_AND2X2
AOAI21X1_23 [_356_ _357_ w_C_4_] _358_ d_lut_OAI21X1
ANAND2X1_25 [_358_ _362_] _355__4_ d_lut_NAND2X1
AINVX1_72 [w_C_5_] _366_ d_lut_INVX1
AOR2X2_10 [i_add2_5_ i_add1_5_] _367_ d_lut_OR2X2
ANAND2X1_26 [i_add2_5_ i_add1_5_] _368_ d_lut_NAND2X1
ANAND3X1_33 [_366_ _368_ _367_] _369_ d_lut_NAND3X1
ANOR2X1_30 [i_add2_5_ i_add1_5_] _363_ d_lut_NOR2X1
AAND2X2_19 [i_add2_5_ i_add1_5_] _364_ d_lut_AND2X2
AOAI21X1_24 [_363_ _364_ w_C_5_] _365_ d_lut_OAI21X1
ANAND2X1_27 [_365_ _369_] _355__5_ d_lut_NAND2X1
AINVX1_73 [w_C_6_] _373_ d_lut_INVX1
AOR2X2_11 [i_add2_6_ i_add1_6_] _374_ d_lut_OR2X2
ANAND2X1_28 [i_add2_6_ i_add1_6_] _375_ d_lut_NAND2X1
ANAND3X1_34 [_373_ _375_ _374_] _376_ d_lut_NAND3X1
ANOR2X1_31 [i_add2_6_ i_add1_6_] _370_ d_lut_NOR2X1
AAND2X2_20 [i_add2_6_ i_add1_6_] _371_ d_lut_AND2X2
AOAI21X1_25 [_370_ _371_ w_C_6_] _372_ d_lut_OAI21X1
ANAND2X1_29 [_372_ _376_] _355__6_ d_lut_NAND2X1
AINVX1_74 [w_C_7_] _380_ d_lut_INVX1
AOR2X2_12 [i_add2_7_ i_add1_7_] _381_ d_lut_OR2X2
ANAND2X1_30 [i_add2_7_ i_add1_7_] _382_ d_lut_NAND2X1
ANAND3X1_35 [_380_ _382_ _381_] _383_ d_lut_NAND3X1
ANOR2X1_32 [i_add2_7_ i_add1_7_] _377_ d_lut_NOR2X1
AAND2X2_21 [i_add2_7_ i_add1_7_] _378_ d_lut_AND2X2
AOAI21X1_26 [_377_ _378_ w_C_7_] _379_ d_lut_OAI21X1
ANAND2X1_31 [_379_ _383_] _355__7_ d_lut_NAND2X1
AINVX1_75 [w_C_8_] _387_ d_lut_INVX1
AOR2X2_13 [i_add2_8_ i_add1_8_] _388_ d_lut_OR2X2
ANAND2X1_32 [i_add2_8_ i_add1_8_] _389_ d_lut_NAND2X1
ANAND3X1_36 [_387_ _389_ _388_] _390_ d_lut_NAND3X1
ANOR2X1_33 [i_add2_8_ i_add1_8_] _384_ d_lut_NOR2X1
AAND2X2_22 [i_add2_8_ i_add1_8_] _385_ d_lut_AND2X2
AOAI21X1_27 [_384_ _385_ w_C_8_] _386_ d_lut_OAI21X1
ANAND2X1_33 [_386_ _390_] _355__8_ d_lut_NAND2X1
AINVX1_76 [w_C_9_] _394_ d_lut_INVX1
AOR2X2_14 [i_add2_9_ i_add1_9_] _395_ d_lut_OR2X2
ANAND2X1_34 [i_add2_9_ i_add1_9_] _396_ d_lut_NAND2X1
ANAND3X1_37 [_394_ _396_ _395_] _397_ d_lut_NAND3X1
ANOR2X1_34 [i_add2_9_ i_add1_9_] _391_ d_lut_NOR2X1
AAND2X2_23 [i_add2_9_ i_add1_9_] _392_ d_lut_AND2X2
AOAI21X1_28 [_391_ _392_ w_C_9_] _393_ d_lut_OAI21X1
ANAND2X1_35 [_393_ _397_] _355__9_ d_lut_NAND2X1
AINVX1_77 [w_C_10_] _401_ d_lut_INVX1
AOR2X2_15 [i_add2_10_ i_add1_10_] _402_ d_lut_OR2X2
ANAND2X1_36 [i_add2_10_ i_add1_10_] _403_ d_lut_NAND2X1
ANAND3X1_38 [_401_ _403_ _402_] _404_ d_lut_NAND3X1
ANOR2X1_35 [i_add2_10_ i_add1_10_] _398_ d_lut_NOR2X1
AAND2X2_24 [i_add2_10_ i_add1_10_] _399_ d_lut_AND2X2
AOAI21X1_29 [_398_ _399_ w_C_10_] _400_ d_lut_OAI21X1
ANAND2X1_37 [_400_ _404_] _355__10_ d_lut_NAND2X1
AINVX1_78 [w_C_11_] _408_ d_lut_INVX1
AOR2X2_16 [i_add2_11_ i_add1_11_] _409_ d_lut_OR2X2
ANAND2X1_38 [i_add2_11_ i_add1_11_] _410_ d_lut_NAND2X1
ANAND3X1_39 [_408_ _410_ _409_] _411_ d_lut_NAND3X1
ANOR2X1_36 [i_add2_11_ i_add1_11_] _405_ d_lut_NOR2X1
AAND2X2_25 [i_add2_11_ i_add1_11_] _406_ d_lut_AND2X2
AOAI21X1_30 [_405_ _406_ w_C_11_] _407_ d_lut_OAI21X1
ANAND2X1_39 [_407_ _411_] _355__11_ d_lut_NAND2X1
AINVX1_79 [w_C_12_] _415_ d_lut_INVX1
AOR2X2_17 [i_add2_12_ i_add1_12_] _416_ d_lut_OR2X2
ANAND2X1_40 [i_add2_12_ i_add1_12_] _417_ d_lut_NAND2X1
ANAND3X1_40 [_415_ _417_ _416_] _418_ d_lut_NAND3X1
ANOR2X1_37 [i_add2_12_ i_add1_12_] _412_ d_lut_NOR2X1
AAND2X2_26 [i_add2_12_ i_add1_12_] _413_ d_lut_AND2X2
AOAI21X1_31 [_412_ _413_ w_C_12_] _414_ d_lut_OAI21X1
ANAND2X1_41 [_414_ _418_] _355__12_ d_lut_NAND2X1
AINVX1_80 [w_C_13_] _422_ d_lut_INVX1
AOR2X2_18 [i_add2_13_ i_add1_13_] _423_ d_lut_OR2X2
ANAND2X1_42 [i_add2_13_ i_add1_13_] _424_ d_lut_NAND2X1
ANAND3X1_41 [_422_ _424_ _423_] _425_ d_lut_NAND3X1
ANOR2X1_38 [i_add2_13_ i_add1_13_] _419_ d_lut_NOR2X1
AAND2X2_27 [i_add2_13_ i_add1_13_] _420_ d_lut_AND2X2
AOAI21X1_32 [_419_ _420_ w_C_13_] _421_ d_lut_OAI21X1
ANAND2X1_43 [_421_ _425_] _355__13_ d_lut_NAND2X1
AINVX1_81 [w_C_14_] _429_ d_lut_INVX1
AOR2X2_19 [i_add2_14_ i_add1_14_] _430_ d_lut_OR2X2
ANAND2X1_44 [i_add2_14_ i_add1_14_] _431_ d_lut_NAND2X1
ANAND3X1_42 [_429_ _431_ _430_] _432_ d_lut_NAND3X1
ANOR2X1_39 [i_add2_14_ i_add1_14_] _426_ d_lut_NOR2X1
AAND2X2_28 [i_add2_14_ i_add1_14_] _427_ d_lut_AND2X2
AOAI21X1_33 [_426_ _427_ w_C_14_] _428_ d_lut_OAI21X1
ANAND2X1_45 [_428_ _432_] _355__14_ d_lut_NAND2X1
AINVX1_82 [w_C_15_] _436_ d_lut_INVX1
AOR2X2_20 [i_add2_15_ i_add1_15_] _437_ d_lut_OR2X2
ANAND2X1_46 [i_add2_15_ i_add1_15_] _438_ d_lut_NAND2X1
ANAND3X1_43 [_436_ _438_ _437_] _439_ d_lut_NAND3X1
ANOR2X1_40 [i_add2_15_ i_add1_15_] _433_ d_lut_NOR2X1
AAND2X2_29 [i_add2_15_ i_add1_15_] _434_ d_lut_AND2X2
AOAI21X1_34 [_433_ _434_ w_C_15_] _435_ d_lut_OAI21X1
ANAND2X1_47 [_435_ _439_] _355__15_ d_lut_NAND2X1
AINVX1_83 [w_C_16_] _443_ d_lut_INVX1
AOR2X2_21 [i_add2_16_ i_add1_16_] _444_ d_lut_OR2X2
ANAND2X1_48 [i_add2_16_ i_add1_16_] _445_ d_lut_NAND2X1
ANAND3X1_44 [_443_ _445_ _444_] _446_ d_lut_NAND3X1
ANOR2X1_41 [i_add2_16_ i_add1_16_] _440_ d_lut_NOR2X1
AAND2X2_30 [i_add2_16_ i_add1_16_] _441_ d_lut_AND2X2
AOAI21X1_35 [_440_ _441_ w_C_16_] _442_ d_lut_OAI21X1
ANAND2X1_49 [_442_ _446_] _355__16_ d_lut_NAND2X1
AINVX1_84 [w_C_17_] _450_ d_lut_INVX1
AOR2X2_22 [i_add2_17_ i_add1_17_] _451_ d_lut_OR2X2
ANAND2X1_50 [i_add2_17_ i_add1_17_] _452_ d_lut_NAND2X1
ANAND3X1_45 [_450_ _452_ _451_] _453_ d_lut_NAND3X1
ANOR2X1_42 [i_add2_17_ i_add1_17_] _447_ d_lut_NOR2X1
AAND2X2_31 [i_add2_17_ i_add1_17_] _448_ d_lut_AND2X2
AOAI21X1_36 [_447_ _448_ w_C_17_] _449_ d_lut_OAI21X1
ANAND2X1_51 [_449_ _453_] _355__17_ d_lut_NAND2X1
AINVX1_85 [w_C_18_] _457_ d_lut_INVX1
AOR2X2_23 [i_add2_18_ i_add1_18_] _458_ d_lut_OR2X2
ANAND2X1_52 [i_add2_18_ i_add1_18_] _459_ d_lut_NAND2X1
ANAND3X1_46 [_457_ _459_ _458_] _460_ d_lut_NAND3X1
ANOR2X1_43 [i_add2_18_ i_add1_18_] _454_ d_lut_NOR2X1
AAND2X2_32 [i_add2_18_ i_add1_18_] _455_ d_lut_AND2X2
AOAI21X1_37 [_454_ _455_ w_C_18_] _456_ d_lut_OAI21X1
ANAND2X1_53 [_456_ _460_] _355__18_ d_lut_NAND2X1
AINVX1_86 [w_C_19_] _464_ d_lut_INVX1
AOR2X2_24 [i_add2_19_ i_add1_19_] _465_ d_lut_OR2X2
ANAND2X1_54 [i_add2_19_ i_add1_19_] _466_ d_lut_NAND2X1
ANAND3X1_47 [_464_ _466_ _465_] _467_ d_lut_NAND3X1
ANOR2X1_44 [i_add2_19_ i_add1_19_] _461_ d_lut_NOR2X1
AAND2X2_33 [i_add2_19_ i_add1_19_] _462_ d_lut_AND2X2
AOAI21X1_38 [_461_ _462_ w_C_19_] _463_ d_lut_OAI21X1
ANAND2X1_55 [_463_ _467_] _355__19_ d_lut_NAND2X1
AINVX1_87 [w_C_20_] _471_ d_lut_INVX1
AOR2X2_25 [i_add2_20_ i_add1_20_] _472_ d_lut_OR2X2
ANAND2X1_56 [i_add2_20_ i_add1_20_] _473_ d_lut_NAND2X1
ANAND3X1_48 [_471_ _473_ _472_] _474_ d_lut_NAND3X1
ANOR2X1_45 [i_add2_20_ i_add1_20_] _468_ d_lut_NOR2X1
AAND2X2_34 [i_add2_20_ i_add1_20_] _469_ d_lut_AND2X2
AOAI21X1_39 [_468_ _469_ w_C_20_] _470_ d_lut_OAI21X1
ANAND2X1_57 [_470_ _474_] _355__20_ d_lut_NAND2X1
AINVX1_88 [w_C_21_] _478_ d_lut_INVX1
AOR2X2_26 [i_add2_21_ i_add1_21_] _479_ d_lut_OR2X2
ANAND2X1_58 [i_add2_21_ i_add1_21_] _480_ d_lut_NAND2X1
ANAND3X1_49 [_478_ _480_ _479_] _481_ d_lut_NAND3X1
ANOR2X1_46 [i_add2_21_ i_add1_21_] _475_ d_lut_NOR2X1
AAND2X2_35 [i_add2_21_ i_add1_21_] _476_ d_lut_AND2X2
AOAI21X1_40 [_475_ _476_ w_C_21_] _477_ d_lut_OAI21X1
ANAND2X1_59 [_477_ _481_] _355__21_ d_lut_NAND2X1
AINVX1_89 [w_C_22_] _485_ d_lut_INVX1
AOR2X2_27 [i_add2_22_ i_add1_22_] _486_ d_lut_OR2X2
ANAND2X1_60 [i_add2_22_ i_add1_22_] _487_ d_lut_NAND2X1
ANAND3X1_50 [_485_ _487_ _486_] _488_ d_lut_NAND3X1
ANOR2X1_47 [i_add2_22_ i_add1_22_] _482_ d_lut_NOR2X1
AAND2X2_36 [i_add2_22_ i_add1_22_] _483_ d_lut_AND2X2
AOAI21X1_41 [_482_ _483_ w_C_22_] _484_ d_lut_OAI21X1
ANAND2X1_61 [_484_ _488_] _355__22_ d_lut_NAND2X1
AINVX1_90 [w_C_23_] _492_ d_lut_INVX1
AOR2X2_28 [i_add2_23_ i_add1_23_] _493_ d_lut_OR2X2
ANAND2X1_62 [i_add2_23_ i_add1_23_] _494_ d_lut_NAND2X1
ANAND3X1_51 [_492_ _494_ _493_] _495_ d_lut_NAND3X1
ANOR2X1_48 [i_add2_23_ i_add1_23_] _489_ d_lut_NOR2X1
AAND2X2_37 [i_add2_23_ i_add1_23_] _490_ d_lut_AND2X2
AOAI21X1_42 [_489_ _490_ w_C_23_] _491_ d_lut_OAI21X1
ANAND2X1_63 [_491_ _495_] _355__23_ d_lut_NAND2X1
AINVX1_91 [w_C_24_] _499_ d_lut_INVX1
AOR2X2_29 [i_add2_24_ i_add1_24_] _500_ d_lut_OR2X2
ANAND2X1_64 [i_add2_24_ i_add1_24_] _501_ d_lut_NAND2X1
ANAND3X1_52 [_499_ _501_ _500_] _502_ d_lut_NAND3X1
ANOR2X1_49 [i_add2_24_ i_add1_24_] _496_ d_lut_NOR2X1
AAND2X2_38 [i_add2_24_ i_add1_24_] _497_ d_lut_AND2X2
AOAI21X1_43 [_496_ _497_ w_C_24_] _498_ d_lut_OAI21X1
ANAND2X1_65 [_498_ _502_] _355__24_ d_lut_NAND2X1
AINVX1_92 [w_C_25_] _506_ d_lut_INVX1
AOR2X2_30 [i_add2_25_ i_add1_25_] _507_ d_lut_OR2X2
ANAND2X1_66 [i_add2_25_ i_add1_25_] _508_ d_lut_NAND2X1
ANAND3X1_53 [_506_ _508_ _507_] _509_ d_lut_NAND3X1
ANOR2X1_50 [i_add2_25_ i_add1_25_] _503_ d_lut_NOR2X1
AAND2X2_39 [i_add2_25_ i_add1_25_] _504_ d_lut_AND2X2
AOAI21X1_44 [_503_ _504_ w_C_25_] _505_ d_lut_OAI21X1
ANAND2X1_67 [_505_ _509_] _355__25_ d_lut_NAND2X1
AINVX1_93 [w_C_26_] _513_ d_lut_INVX1
AOR2X2_31 [i_add2_26_ i_add1_26_] _514_ d_lut_OR2X2
ANAND2X1_68 [i_add2_26_ i_add1_26_] _515_ d_lut_NAND2X1
ANAND3X1_54 [_513_ _515_ _514_] _516_ d_lut_NAND3X1
ANOR2X1_51 [i_add2_26_ i_add1_26_] _510_ d_lut_NOR2X1
AAND2X2_40 [i_add2_26_ i_add1_26_] _511_ d_lut_AND2X2
AOAI21X1_45 [_510_ _511_ w_C_26_] _512_ d_lut_OAI21X1
ANAND2X1_69 [_512_ _516_] _355__26_ d_lut_NAND2X1
AINVX1_94 [w_C_27_] _520_ d_lut_INVX1
AOR2X2_32 [i_add2_27_ i_add1_27_] _521_ d_lut_OR2X2
ANAND2X1_70 [i_add2_27_ i_add1_27_] _522_ d_lut_NAND2X1
ANAND3X1_55 [_520_ _522_ _521_] _523_ d_lut_NAND3X1
ANOR2X1_52 [i_add2_27_ i_add1_27_] _517_ d_lut_NOR2X1
AAND2X2_41 [i_add2_27_ i_add1_27_] _518_ d_lut_AND2X2
AOAI21X1_46 [_517_ _518_ w_C_27_] _519_ d_lut_OAI21X1
ANAND2X1_71 [_519_ _523_] _355__27_ d_lut_NAND2X1
AINVX1_95 [w_C_28_] _527_ d_lut_INVX1
AOR2X2_33 [i_add2_28_ i_add1_28_] _528_ d_lut_OR2X2
ANAND2X1_72 [i_add2_28_ i_add1_28_] _529_ d_lut_NAND2X1
ANAND3X1_56 [_527_ _529_ _528_] _530_ d_lut_NAND3X1
ANOR2X1_53 [i_add2_28_ i_add1_28_] _524_ d_lut_NOR2X1
AAND2X2_42 [i_add2_28_ i_add1_28_] _525_ d_lut_AND2X2
AOAI21X1_47 [_524_ _525_ w_C_28_] _526_ d_lut_OAI21X1
ANAND2X1_73 [_526_ _530_] _355__28_ d_lut_NAND2X1
AINVX1_96 [w_C_29_] _534_ d_lut_INVX1
AOR2X2_34 [i_add2_29_ i_add1_29_] _535_ d_lut_OR2X2
ANAND2X1_74 [i_add2_29_ i_add1_29_] _536_ d_lut_NAND2X1
ANAND3X1_57 [_534_ _536_ _535_] _537_ d_lut_NAND3X1
ANOR2X1_54 [i_add2_29_ i_add1_29_] _531_ d_lut_NOR2X1
AAND2X2_43 [i_add2_29_ i_add1_29_] _532_ d_lut_AND2X2
AOAI21X1_48 [_531_ _532_ w_C_29_] _533_ d_lut_OAI21X1
ANAND2X1_75 [_533_ _537_] _355__29_ d_lut_NAND2X1
AINVX1_97 [w_C_30_] _541_ d_lut_INVX1
AOR2X2_35 [i_add2_30_ i_add1_30_] _542_ d_lut_OR2X2
ANAND2X1_76 [i_add2_30_ i_add1_30_] _543_ d_lut_NAND2X1
ANAND3X1_58 [_541_ _543_ _542_] _544_ d_lut_NAND3X1
ANOR2X1_55 [i_add2_30_ i_add1_30_] _538_ d_lut_NOR2X1
AAND2X2_44 [i_add2_30_ i_add1_30_] _539_ d_lut_AND2X2
AOAI21X1_49 [_538_ _539_ w_C_30_] _540_ d_lut_OAI21X1
ANAND2X1_77 [_540_ _544_] _355__30_ d_lut_NAND2X1
AINVX1_98 [w_C_31_] _548_ d_lut_INVX1
AOR2X2_36 [i_add2_31_ i_add1_31_] _549_ d_lut_OR2X2
ANAND2X1_78 [i_add2_31_ i_add1_31_] _550_ d_lut_NAND2X1
ANAND3X1_59 [_548_ _550_ _549_] _551_ d_lut_NAND3X1
ANOR2X1_56 [i_add2_31_ i_add1_31_] _545_ d_lut_NOR2X1
AAND2X2_45 [i_add2_31_ i_add1_31_] _546_ d_lut_AND2X2
AOAI21X1_50 [_545_ _546_ w_C_31_] _547_ d_lut_OAI21X1
ANAND2X1_79 [_547_ _551_] _355__31_ d_lut_NAND2X1
AINVX1_99 [w_C_32_] _555_ d_lut_INVX1
AOR2X2_37 [i_add2_32_ i_add1_32_] _556_ d_lut_OR2X2
ANAND2X1_80 [i_add2_32_ i_add1_32_] _557_ d_lut_NAND2X1
ANAND3X1_60 [_555_ _557_ _556_] _558_ d_lut_NAND3X1
ANOR2X1_57 [i_add2_32_ i_add1_32_] _552_ d_lut_NOR2X1
AAND2X2_46 [i_add2_32_ i_add1_32_] _553_ d_lut_AND2X2
AOAI21X1_51 [_552_ _553_ w_C_32_] _554_ d_lut_OAI21X1
ANAND2X1_81 [_554_ _558_] _355__32_ d_lut_NAND2X1
AINVX1_100 [w_C_33_] _562_ d_lut_INVX1
AOR2X2_38 [i_add2_33_ i_add1_33_] _563_ d_lut_OR2X2
ANAND2X1_82 [i_add2_33_ i_add1_33_] _564_ d_lut_NAND2X1
ANAND3X1_61 [_562_ _564_ _563_] _565_ d_lut_NAND3X1
ANOR2X1_58 [i_add2_33_ i_add1_33_] _559_ d_lut_NOR2X1
AAND2X2_47 [i_add2_33_ i_add1_33_] _560_ d_lut_AND2X2
AOAI21X1_52 [_559_ _560_ w_C_33_] _561_ d_lut_OAI21X1
ANAND2X1_83 [_561_ _565_] _355__33_ d_lut_NAND2X1
AINVX1_101 [w_C_34_] _569_ d_lut_INVX1
AOR2X2_39 [i_add2_34_ i_add1_34_] _570_ d_lut_OR2X2
ANAND2X1_84 [i_add2_34_ i_add1_34_] _571_ d_lut_NAND2X1
ANAND3X1_62 [_569_ _571_ _570_] _572_ d_lut_NAND3X1
ANOR2X1_59 [i_add2_34_ i_add1_34_] _566_ d_lut_NOR2X1
AAND2X2_48 [i_add2_34_ i_add1_34_] _567_ d_lut_AND2X2
AOAI21X1_53 [_566_ _567_ w_C_34_] _568_ d_lut_OAI21X1
ANAND2X1_85 [_568_ _572_] _355__34_ d_lut_NAND2X1
AINVX1_102 [w_C_35_] _576_ d_lut_INVX1
AOR2X2_40 [i_add2_35_ i_add1_35_] _577_ d_lut_OR2X2
ANAND2X1_86 [i_add2_35_ i_add1_35_] _578_ d_lut_NAND2X1
ANAND3X1_63 [_576_ _578_ _577_] _579_ d_lut_NAND3X1
ANOR2X1_60 [i_add2_35_ i_add1_35_] _573_ d_lut_NOR2X1
AAND2X2_49 [i_add2_35_ i_add1_35_] _574_ d_lut_AND2X2
AOAI21X1_54 [_573_ _574_ w_C_35_] _575_ d_lut_OAI21X1
ANAND2X1_87 [_575_ _579_] _355__35_ d_lut_NAND2X1
AINVX1_103 [w_C_36_] _583_ d_lut_INVX1
AOR2X2_41 [i_add2_36_ i_add1_36_] _584_ d_lut_OR2X2
ANAND2X1_88 [i_add2_36_ i_add1_36_] _585_ d_lut_NAND2X1
ANAND3X1_64 [_583_ _585_ _584_] _586_ d_lut_NAND3X1
ANOR2X1_61 [i_add2_36_ i_add1_36_] _580_ d_lut_NOR2X1
AAND2X2_50 [i_add2_36_ i_add1_36_] _581_ d_lut_AND2X2
AOAI21X1_55 [_580_ _581_ w_C_36_] _582_ d_lut_OAI21X1
ANAND2X1_89 [_582_ _586_] _355__36_ d_lut_NAND2X1
AINVX1_104 [w_C_37_] _590_ d_lut_INVX1
AOR2X2_42 [i_add2_37_ i_add1_37_] _591_ d_lut_OR2X2
ANAND2X1_90 [i_add2_37_ i_add1_37_] _592_ d_lut_NAND2X1
ANAND3X1_65 [_590_ _592_ _591_] _593_ d_lut_NAND3X1
ANOR2X1_62 [i_add2_37_ i_add1_37_] _587_ d_lut_NOR2X1
AAND2X2_51 [i_add2_37_ i_add1_37_] _588_ d_lut_AND2X2
AOAI21X1_56 [_587_ _588_ w_C_37_] _589_ d_lut_OAI21X1
ANAND2X1_91 [_589_ _593_] _355__37_ d_lut_NAND2X1
AINVX1_105 [w_C_38_] _597_ d_lut_INVX1
AOR2X2_43 [i_add2_38_ i_add1_38_] _598_ d_lut_OR2X2
ANAND2X1_92 [i_add2_38_ i_add1_38_] _599_ d_lut_NAND2X1
ANAND3X1_66 [_597_ _599_ _598_] _600_ d_lut_NAND3X1
ANOR2X1_63 [i_add2_38_ i_add1_38_] _594_ d_lut_NOR2X1
AAND2X2_52 [i_add2_38_ i_add1_38_] _595_ d_lut_AND2X2
AOAI21X1_57 [_594_ _595_ w_C_38_] _596_ d_lut_OAI21X1
ANAND2X1_93 [_596_ _600_] _355__38_ d_lut_NAND2X1
AINVX1_106 [w_C_39_] _604_ d_lut_INVX1
AOR2X2_44 [i_add2_39_ i_add1_39_] _605_ d_lut_OR2X2
ANAND2X1_94 [i_add2_39_ i_add1_39_] _606_ d_lut_NAND2X1
ANAND3X1_67 [_604_ _606_ _605_] _607_ d_lut_NAND3X1
ANOR2X1_64 [i_add2_39_ i_add1_39_] _601_ d_lut_NOR2X1
AAND2X2_53 [i_add2_39_ i_add1_39_] _602_ d_lut_AND2X2
AOAI21X1_58 [_601_ _602_ w_C_39_] _603_ d_lut_OAI21X1
ANAND2X1_95 [_603_ _607_] _355__39_ d_lut_NAND2X1
AINVX1_107 [w_C_40_] _611_ d_lut_INVX1
AOR2X2_45 [i_add2_40_ i_add1_40_] _612_ d_lut_OR2X2
ANAND2X1_96 [i_add2_40_ i_add1_40_] _613_ d_lut_NAND2X1
ANAND3X1_68 [_611_ _613_ _612_] _614_ d_lut_NAND3X1
ANOR2X1_65 [i_add2_40_ i_add1_40_] _608_ d_lut_NOR2X1
AAND2X2_54 [i_add2_40_ i_add1_40_] _609_ d_lut_AND2X2
AOAI21X1_59 [_608_ _609_ w_C_40_] _610_ d_lut_OAI21X1
ANAND2X1_97 [_610_ _614_] _355__40_ d_lut_NAND2X1
AINVX1_108 [w_C_41_] _618_ d_lut_INVX1
AOR2X2_46 [i_add2_41_ i_add1_41_] _619_ d_lut_OR2X2
ANAND2X1_98 [i_add2_41_ i_add1_41_] _620_ d_lut_NAND2X1