* XSpice netlist created from SPICE and liberty sources by spi2xspice.py
*SPICE netlist created from BLIF module cla_49bit by blif2BSpice
.subckt cla_49bit a_vdd a_gnd a_i_add1_0_ a_i_add1_1_ a_i_add1_2_ a_i_add1_3_ a_i_add1_4_ a_i_add1_5_ a_i_add1_6_ a_i_add1_7_ a_i_add1_8_ a_i_add1_9_ a_i_add1_10_ a_i_add1_11_ a_i_add1_12_ a_i_add1_13_ a_i_add1_14_ a_i_add1_15_ a_i_add1_16_ a_i_add1_17_ a_i_add1_18_ a_i_add1_19_ a_i_add1_20_ a_i_add1_21_ a_i_add1_22_ a_i_add1_23_ a_i_add1_24_ a_i_add1_25_ a_i_add1_26_ a_i_add1_27_ a_i_add1_28_ a_i_add1_29_ a_i_add1_30_ a_i_add1_31_ a_i_add1_32_ a_i_add1_33_ a_i_add1_34_ a_i_add1_35_ a_i_add1_36_ a_i_add1_37_ a_i_add1_38_ a_i_add1_39_ a_i_add1_40_ a_i_add1_41_ a_i_add1_42_ a_i_add1_43_ a_i_add1_44_ a_i_add1_45_ a_i_add1_46_ a_i_add1_47_ a_i_add1_48_ a_i_add2_0_ a_i_add2_1_ a_i_add2_2_ a_i_add2_3_ a_i_add2_4_ a_i_add2_5_ a_i_add2_6_ a_i_add2_7_ a_i_add2_8_ a_i_add2_9_ a_i_add2_10_ a_i_add2_11_ a_i_add2_12_ a_i_add2_13_ a_i_add2_14_ a_i_add2_15_ a_i_add2_16_ a_i_add2_17_ a_i_add2_18_ a_i_add2_19_ a_i_add2_20_ a_i_add2_21_ a_i_add2_22_ a_i_add2_23_ a_i_add2_24_ a_i_add2_25_ a_i_add2_26_ a_i_add2_27_ a_i_add2_28_ a_i_add2_29_ a_i_add2_30_ a_i_add2_31_ a_i_add2_32_ a_i_add2_33_ a_i_add2_34_ a_i_add2_35_ a_i_add2_36_ a_i_add2_37_ a_i_add2_38_ a_i_add2_39_ a_i_add2_40_ a_i_add2_41_ a_i_add2_42_ a_i_add2_43_ a_i_add2_44_ a_i_add2_45_ a_i_add2_46_ a_i_add2_47_ a_i_add2_48_ a_o_result_0_ a_o_result_1_ a_o_result_2_ a_o_result_3_ a_o_result_4_ a_o_result_5_ a_o_result_6_ a_o_result_7_ a_o_result_8_ a_o_result_9_ a_o_result_10_ a_o_result_11_ a_o_result_12_ a_o_result_13_ a_o_result_14_ a_o_result_15_ a_o_result_16_ a_o_result_17_ a_o_result_18_ a_o_result_19_ a_o_result_20_ a_o_result_21_ a_o_result_22_ a_o_result_23_ a_o_result_24_ a_o_result_25_ a_o_result_26_ a_o_result_27_ a_o_result_28_ a_o_result_29_ a_o_result_30_ a_o_result_31_ a_o_result_32_ a_o_result_33_ a_o_result_34_ a_o_result_35_ a_o_result_36_ a_o_result_37_ a_o_result_38_ a_o_result_39_ a_o_result_40_ a_o_result_41_ a_o_result_42_ a_o_result_43_ a_o_result_44_ a_o_result_45_ a_o_result_46_ a_o_result_47_ a_o_result_48_ a_o_result_49_
ANAND3X1_1 [_281_ _283_ _282_] _284_ d_lut_NAND3X1
ANOR2X1_1 [i_add2_4_ i_add1_4_] _278_ d_lut_NOR2X1
AAND2X2_1 [i_add2_4_ i_add1_4_] _279_ d_lut_AND2X2
AOAI21X1_1 [_278_ _279_ w_C_4_] _280_ d_lut_OAI21X1
ANAND2X1_1 [_280_ _284_] _277__4_ d_lut_NAND2X1
AINVX1_1 [w_C_5_] _288_ d_lut_INVX1
AOR2X2_1 [i_add2_5_ i_add1_5_] _289_ d_lut_OR2X2
ANAND2X1_2 [i_add2_5_ i_add1_5_] _290_ d_lut_NAND2X1
ANAND3X1_2 [_288_ _290_ _289_] _291_ d_lut_NAND3X1
ANOR2X1_2 [i_add2_5_ i_add1_5_] _285_ d_lut_NOR2X1
AAND2X2_2 [i_add2_5_ i_add1_5_] _286_ d_lut_AND2X2
AOAI21X1_2 [_285_ _286_ w_C_5_] _287_ d_lut_OAI21X1
ANAND2X1_3 [_287_ _291_] _277__5_ d_lut_NAND2X1
AINVX1_2 [w_C_6_] _295_ d_lut_INVX1
AOR2X2_2 [i_add2_6_ i_add1_6_] _296_ d_lut_OR2X2
ANAND2X1_4 [i_add2_6_ i_add1_6_] _297_ d_lut_NAND2X1
ANAND3X1_3 [_295_ _297_ _296_] _298_ d_lut_NAND3X1
ANOR2X1_3 [i_add2_6_ i_add1_6_] _292_ d_lut_NOR2X1
AAND2X2_3 [i_add2_6_ i_add1_6_] _293_ d_lut_AND2X2
AOAI21X1_3 [_292_ _293_ w_C_6_] _294_ d_lut_OAI21X1
ANAND2X1_5 [_294_ _298_] _277__6_ d_lut_NAND2X1
AINVX1_3 [w_C_7_] _302_ d_lut_INVX1
AOR2X2_3 [i_add2_7_ i_add1_7_] _303_ d_lut_OR2X2
ANAND2X1_6 [i_add2_7_ i_add1_7_] _304_ d_lut_NAND2X1
ANAND3X1_4 [_302_ _304_ _303_] _305_ d_lut_NAND3X1
ANOR2X1_4 [i_add2_7_ i_add1_7_] _299_ d_lut_NOR2X1
AAND2X2_4 [i_add2_7_ i_add1_7_] _300_ d_lut_AND2X2
AOAI21X1_4 [_299_ _300_ w_C_7_] _301_ d_lut_OAI21X1
ANAND2X1_7 [_301_ _305_] _277__7_ d_lut_NAND2X1
AINVX1_4 [w_C_8_] _309_ d_lut_INVX1
AOR2X2_4 [i_add2_8_ i_add1_8_] _310_ d_lut_OR2X2
ANAND2X1_8 [i_add2_8_ i_add1_8_] _311_ d_lut_NAND2X1
ANAND3X1_5 [_309_ _311_ _310_] _312_ d_lut_NAND3X1
ANOR2X1_5 [i_add2_8_ i_add1_8_] _306_ d_lut_NOR2X1
AAND2X2_5 [i_add2_8_ i_add1_8_] _307_ d_lut_AND2X2
AOAI21X1_5 [_306_ _307_ w_C_8_] _308_ d_lut_OAI21X1
ANAND2X1_9 [_308_ _312_] _277__8_ d_lut_NAND2X1
AINVX1_5 [w_C_9_] _316_ d_lut_INVX1
AOR2X2_5 [i_add2_9_ i_add1_9_] _317_ d_lut_OR2X2
ANAND2X1_10 [i_add2_9_ i_add1_9_] _318_ d_lut_NAND2X1
ANAND3X1_6 [_316_ _318_ _317_] _319_ d_lut_NAND3X1
ANOR2X1_6 [i_add2_9_ i_add1_9_] _313_ d_lut_NOR2X1
AAND2X2_6 [i_add2_9_ i_add1_9_] _314_ d_lut_AND2X2
AOAI21X1_6 [_313_ _314_ w_C_9_] _315_ d_lut_OAI21X1
ANAND2X1_11 [_315_ _319_] _277__9_ d_lut_NAND2X1
AINVX1_6 [w_C_10_] _323_ d_lut_INVX1
AOR2X2_6 [i_add2_10_ i_add1_10_] _324_ d_lut_OR2X2
ANAND2X1_12 [i_add2_10_ i_add1_10_] _325_ d_lut_NAND2X1
ANAND3X1_7 [_323_ _325_ _324_] _326_ d_lut_NAND3X1
ANOR2X1_7 [i_add2_10_ i_add1_10_] _320_ d_lut_NOR2X1
AAND2X2_7 [i_add2_10_ i_add1_10_] _321_ d_lut_AND2X2
AOAI21X1_7 [_320_ _321_ w_C_10_] _322_ d_lut_OAI21X1
ANAND2X1_13 [_322_ _326_] _277__10_ d_lut_NAND2X1
AINVX1_7 [w_C_11_] _330_ d_lut_INVX1
AOR2X2_7 [i_add2_11_ i_add1_11_] _331_ d_lut_OR2X2
ANAND2X1_14 [i_add2_11_ i_add1_11_] _332_ d_lut_NAND2X1
ANAND3X1_8 [_330_ _332_ _331_] _333_ d_lut_NAND3X1
ANOR2X1_8 [i_add2_11_ i_add1_11_] _327_ d_lut_NOR2X1
AAND2X2_8 [i_add2_11_ i_add1_11_] _328_ d_lut_AND2X2
AOAI21X1_8 [_327_ _328_ w_C_11_] _329_ d_lut_OAI21X1
ANAND2X1_15 [_329_ _333_] _277__11_ d_lut_NAND2X1
AINVX1_8 [w_C_12_] _337_ d_lut_INVX1
AOR2X2_8 [i_add2_12_ i_add1_12_] _338_ d_lut_OR2X2
ANAND2X1_16 [i_add2_12_ i_add1_12_] _339_ d_lut_NAND2X1
ANAND3X1_9 [_337_ _339_ _338_] _340_ d_lut_NAND3X1
ANOR2X1_9 [i_add2_12_ i_add1_12_] _334_ d_lut_NOR2X1
AAND2X2_9 [i_add2_12_ i_add1_12_] _335_ d_lut_AND2X2
AOAI21X1_9 [_334_ _335_ w_C_12_] _336_ d_lut_OAI21X1
ANAND2X1_17 [_336_ _340_] _277__12_ d_lut_NAND2X1
AINVX1_9 [w_C_13_] _344_ d_lut_INVX1
AOR2X2_9 [i_add2_13_ i_add1_13_] _345_ d_lut_OR2X2
ANAND2X1_18 [i_add2_13_ i_add1_13_] _346_ d_lut_NAND2X1
ANAND3X1_10 [_344_ _346_ _345_] _347_ d_lut_NAND3X1
ANOR2X1_10 [i_add2_13_ i_add1_13_] _341_ d_lut_NOR2X1
AAND2X2_10 [i_add2_13_ i_add1_13_] _342_ d_lut_AND2X2
AOAI21X1_10 [_341_ _342_ w_C_13_] _343_ d_lut_OAI21X1
ANAND2X1_19 [_343_ _347_] _277__13_ d_lut_NAND2X1
AINVX1_10 [w_C_14_] _351_ d_lut_INVX1
AOR2X2_10 [i_add2_14_ i_add1_14_] _352_ d_lut_OR2X2
ANAND2X1_20 [i_add2_14_ i_add1_14_] _353_ d_lut_NAND2X1
ANAND3X1_11 [_351_ _353_ _352_] _354_ d_lut_NAND3X1
ANOR2X1_11 [i_add2_14_ i_add1_14_] _348_ d_lut_NOR2X1
AAND2X2_11 [i_add2_14_ i_add1_14_] _349_ d_lut_AND2X2
AOAI21X1_11 [_348_ _349_ w_C_14_] _350_ d_lut_OAI21X1
ANAND2X1_21 [_350_ _354_] _277__14_ d_lut_NAND2X1
AINVX1_11 [w_C_15_] _358_ d_lut_INVX1
AOR2X2_11 [i_add2_15_ i_add1_15_] _359_ d_lut_OR2X2
ANAND2X1_22 [i_add2_15_ i_add1_15_] _360_ d_lut_NAND2X1
ANAND3X1_12 [_358_ _360_ _359_] _361_ d_lut_NAND3X1
ANOR2X1_12 [i_add2_15_ i_add1_15_] _355_ d_lut_NOR2X1
AAND2X2_12 [i_add2_15_ i_add1_15_] _356_ d_lut_AND2X2
AOAI21X1_12 [_355_ _356_ w_C_15_] _357_ d_lut_OAI21X1
ANAND2X1_23 [_357_ _361_] _277__15_ d_lut_NAND2X1
AINVX1_12 [w_C_16_] _365_ d_lut_INVX1
AOR2X2_12 [i_add2_16_ i_add1_16_] _366_ d_lut_OR2X2
ANAND2X1_24 [i_add2_16_ i_add1_16_] _367_ d_lut_NAND2X1
ANAND3X1_13 [_365_ _367_ _366_] _368_ d_lut_NAND3X1
ANOR2X1_13 [i_add2_16_ i_add1_16_] _362_ d_lut_NOR2X1
AAND2X2_13 [i_add2_16_ i_add1_16_] _363_ d_lut_AND2X2
AOAI21X1_13 [_362_ _363_ w_C_16_] _364_ d_lut_OAI21X1
ANAND2X1_25 [_364_ _368_] _277__16_ d_lut_NAND2X1
AINVX1_13 [w_C_17_] _372_ d_lut_INVX1
AOR2X2_13 [i_add2_17_ i_add1_17_] _373_ d_lut_OR2X2
ANAND2X1_26 [i_add2_17_ i_add1_17_] _374_ d_lut_NAND2X1
ANAND3X1_14 [_372_ _374_ _373_] _375_ d_lut_NAND3X1
ANOR2X1_14 [i_add2_17_ i_add1_17_] _369_ d_lut_NOR2X1
AAND2X2_14 [i_add2_17_ i_add1_17_] _370_ d_lut_AND2X2
AOAI21X1_14 [_369_ _370_ w_C_17_] _371_ d_lut_OAI21X1
ANAND2X1_27 [_371_ _375_] _277__17_ d_lut_NAND2X1
AINVX1_14 [w_C_18_] _379_ d_lut_INVX1
AOR2X2_14 [i_add2_18_ i_add1_18_] _380_ d_lut_OR2X2
ANAND2X1_28 [i_add2_18_ i_add1_18_] _381_ d_lut_NAND2X1
ANAND3X1_15 [_379_ _381_ _380_] _382_ d_lut_NAND3X1
ANOR2X1_15 [i_add2_18_ i_add1_18_] _376_ d_lut_NOR2X1
AAND2X2_15 [i_add2_18_ i_add1_18_] _377_ d_lut_AND2X2
AOAI21X1_15 [_376_ _377_ w_C_18_] _378_ d_lut_OAI21X1
ANAND2X1_29 [_378_ _382_] _277__18_ d_lut_NAND2X1
AINVX1_15 [w_C_19_] _386_ d_lut_INVX1
AOR2X2_15 [i_add2_19_ i_add1_19_] _387_ d_lut_OR2X2
ANAND2X1_30 [i_add2_19_ i_add1_19_] _388_ d_lut_NAND2X1
ANAND3X1_16 [_386_ _388_ _387_] _389_ d_lut_NAND3X1
ANOR2X1_16 [i_add2_19_ i_add1_19_] _383_ d_lut_NOR2X1
AAND2X2_16 [i_add2_19_ i_add1_19_] _384_ d_lut_AND2X2
AOAI21X1_16 [_383_ _384_ w_C_19_] _385_ d_lut_OAI21X1
ANAND2X1_31 [_385_ _389_] _277__19_ d_lut_NAND2X1
AINVX1_16 [w_C_20_] _393_ d_lut_INVX1
AOR2X2_16 [i_add2_20_ i_add1_20_] _394_ d_lut_OR2X2
ANAND2X1_32 [i_add2_20_ i_add1_20_] _395_ d_lut_NAND2X1
ANAND3X1_17 [_393_ _395_ _394_] _396_ d_lut_NAND3X1
ANOR2X1_17 [i_add2_20_ i_add1_20_] _390_ d_lut_NOR2X1
AAND2X2_17 [i_add2_20_ i_add1_20_] _391_ d_lut_AND2X2
AOAI21X1_17 [_390_ _391_ w_C_20_] _392_ d_lut_OAI21X1
ANAND2X1_33 [_392_ _396_] _277__20_ d_lut_NAND2X1
AINVX1_17 [w_C_21_] _400_ d_lut_INVX1
AOR2X2_17 [i_add2_21_ i_add1_21_] _401_ d_lut_OR2X2
ANAND2X1_34 [i_add2_21_ i_add1_21_] _402_ d_lut_NAND2X1
ANAND3X1_18 [_400_ _402_ _401_] _403_ d_lut_NAND3X1
ANOR2X1_18 [i_add2_21_ i_add1_21_] _397_ d_lut_NOR2X1
AAND2X2_18 [i_add2_21_ i_add1_21_] _398_ d_lut_AND2X2
AOAI21X1_18 [_397_ _398_ w_C_21_] _399_ d_lut_OAI21X1
ANAND2X1_35 [_399_ _403_] _277__21_ d_lut_NAND2X1
AINVX1_18 [w_C_22_] _407_ d_lut_INVX1
AOR2X2_18 [i_add2_22_ i_add1_22_] _408_ d_lut_OR2X2
ANAND2X1_36 [i_add2_22_ i_add1_22_] _409_ d_lut_NAND2X1
ANAND3X1_19 [_407_ _409_ _408_] _410_ d_lut_NAND3X1
ANOR2X1_19 [i_add2_22_ i_add1_22_] _404_ d_lut_NOR2X1
AAND2X2_19 [i_add2_22_ i_add1_22_] _405_ d_lut_AND2X2
AOAI21X1_19 [_404_ _405_ w_C_22_] _406_ d_lut_OAI21X1
ANAND2X1_37 [_406_ _410_] _277__22_ d_lut_NAND2X1
AINVX1_19 [w_C_23_] _414_ d_lut_INVX1
AOR2X2_19 [i_add2_23_ i_add1_23_] _415_ d_lut_OR2X2
ANAND2X1_38 [i_add2_23_ i_add1_23_] _416_ d_lut_NAND2X1
ANAND3X1_20 [_414_ _416_ _415_] _417_ d_lut_NAND3X1
ANOR2X1_20 [i_add2_23_ i_add1_23_] _411_ d_lut_NOR2X1
AAND2X2_20 [i_add2_23_ i_add1_23_] _412_ d_lut_AND2X2
AOAI21X1_20 [_411_ _412_ w_C_23_] _413_ d_lut_OAI21X1
ANAND2X1_39 [_413_ _417_] _277__23_ d_lut_NAND2X1
AINVX1_20 [w_C_24_] _421_ d_lut_INVX1
AOR2X2_20 [i_add2_24_ i_add1_24_] _422_ d_lut_OR2X2
ANAND2X1_40 [i_add2_24_ i_add1_24_] _423_ d_lut_NAND2X1
ANAND3X1_21 [_421_ _423_ _422_] _424_ d_lut_NAND3X1
ANOR2X1_21 [i_add2_24_ i_add1_24_] _418_ d_lut_NOR2X1
AAND2X2_21 [i_add2_24_ i_add1_24_] _419_ d_lut_AND2X2
AOAI21X1_21 [_418_ _419_ w_C_24_] _420_ d_lut_OAI21X1
ANAND2X1_41 [_420_ _424_] _277__24_ d_lut_NAND2X1
AINVX1_21 [w_C_25_] _428_ d_lut_INVX1
AOR2X2_21 [i_add2_25_ i_add1_25_] _429_ d_lut_OR2X2
ANAND2X1_42 [i_add2_25_ i_add1_25_] _430_ d_lut_NAND2X1
ANAND3X1_22 [_428_ _430_ _429_] _431_ d_lut_NAND3X1
ANOR2X1_22 [i_add2_25_ i_add1_25_] _425_ d_lut_NOR2X1
AAND2X2_22 [i_add2_25_ i_add1_25_] _426_ d_lut_AND2X2
AOAI21X1_22 [_425_ _426_ w_C_25_] _427_ d_lut_OAI21X1
ANAND2X1_43 [_427_ _431_] _277__25_ d_lut_NAND2X1
AINVX1_22 [w_C_26_] _435_ d_lut_INVX1
AOR2X2_22 [i_add2_26_ i_add1_26_] _436_ d_lut_OR2X2
ANAND2X1_44 [i_add2_26_ i_add1_26_] _437_ d_lut_NAND2X1
ANAND3X1_23 [_435_ _437_ _436_] _438_ d_lut_NAND3X1
ANOR2X1_23 [i_add2_26_ i_add1_26_] _432_ d_lut_NOR2X1
AAND2X2_23 [i_add2_26_ i_add1_26_] _433_ d_lut_AND2X2
AOAI21X1_23 [_432_ _433_ w_C_26_] _434_ d_lut_OAI21X1
ANAND2X1_45 [_434_ _438_] _277__26_ d_lut_NAND2X1
AINVX1_23 [w_C_27_] _442_ d_lut_INVX1
AOR2X2_23 [i_add2_27_ i_add1_27_] _443_ d_lut_OR2X2
ANAND2X1_46 [i_add2_27_ i_add1_27_] _444_ d_lut_NAND2X1
ANAND3X1_24 [_442_ _444_ _443_] _445_ d_lut_NAND3X1
ANOR2X1_24 [i_add2_27_ i_add1_27_] _439_ d_lut_NOR2X1
AAND2X2_24 [i_add2_27_ i_add1_27_] _440_ d_lut_AND2X2
AOAI21X1_24 [_439_ _440_ w_C_27_] _441_ d_lut_OAI21X1
ANAND2X1_47 [_441_ _445_] _277__27_ d_lut_NAND2X1
AINVX1_24 [w_C_28_] _449_ d_lut_INVX1
AOR2X2_24 [i_add2_28_ i_add1_28_] _450_ d_lut_OR2X2
ANAND2X1_48 [i_add2_28_ i_add1_28_] _451_ d_lut_NAND2X1
ANAND3X1_25 [_449_ _451_ _450_] _452_ d_lut_NAND3X1
ANOR2X1_25 [i_add2_28_ i_add1_28_] _446_ d_lut_NOR2X1
AAND2X2_25 [i_add2_28_ i_add1_28_] _447_ d_lut_AND2X2
AOAI21X1_25 [_446_ _447_ w_C_28_] _448_ d_lut_OAI21X1
ANAND2X1_49 [_448_ _452_] _277__28_ d_lut_NAND2X1
AINVX1_25 [w_C_29_] _456_ d_lut_INVX1
AOR2X2_25 [i_add2_29_ i_add1_29_] _457_ d_lut_OR2X2
ANAND2X1_50 [i_add2_29_ i_add1_29_] _458_ d_lut_NAND2X1
ANAND3X1_26 [_456_ _458_ _457_] _459_ d_lut_NAND3X1
ANOR2X1_26 [i_add2_29_ i_add1_29_] _453_ d_lut_NOR2X1
AAND2X2_26 [i_add2_29_ i_add1_29_] _454_ d_lut_AND2X2
AOAI21X1_26 [_453_ _454_ w_C_29_] _455_ d_lut_OAI21X1
ANAND2X1_51 [_455_ _459_] _277__29_ d_lut_NAND2X1
AINVX1_26 [w_C_30_] _463_ d_lut_INVX1
AOR2X2_26 [i_add2_30_ i_add1_30_] _464_ d_lut_OR2X2
ANAND2X1_52 [i_add2_30_ i_add1_30_] _465_ d_lut_NAND2X1
ANAND3X1_27 [_463_ _465_ _464_] _466_ d_lut_NAND3X1
ANOR2X1_27 [i_add2_30_ i_add1_30_] _460_ d_lut_NOR2X1
AAND2X2_27 [i_add2_30_ i_add1_30_] _461_ d_lut_AND2X2
AOAI21X1_27 [_460_ _461_ w_C_30_] _462_ d_lut_OAI21X1
ANAND2X1_53 [_462_ _466_] _277__30_ d_lut_NAND2X1
AINVX1_27 [w_C_31_] _470_ d_lut_INVX1
AOR2X2_27 [i_add2_31_ i_add1_31_] _471_ d_lut_OR2X2
ANAND2X1_54 [i_add2_31_ i_add1_31_] _472_ d_lut_NAND2X1
ANAND3X1_28 [_470_ _472_ _471_] _473_ d_lut_NAND3X1
ANOR2X1_28 [i_add2_31_ i_add1_31_] _467_ d_lut_NOR2X1
AAND2X2_28 [i_add2_31_ i_add1_31_] _468_ d_lut_AND2X2
AOAI21X1_28 [_467_ _468_ w_C_31_] _469_ d_lut_OAI21X1
ANAND2X1_55 [_469_ _473_] _277__31_ d_lut_NAND2X1
AINVX1_28 [w_C_32_] _477_ d_lut_INVX1
AOR2X2_28 [i_add2_32_ i_add1_32_] _478_ d_lut_OR2X2
ANAND2X1_56 [i_add2_32_ i_add1_32_] _479_ d_lut_NAND2X1
ANAND3X1_29 [_477_ _479_ _478_] _480_ d_lut_NAND3X1
ANOR2X1_29 [i_add2_32_ i_add1_32_] _474_ d_lut_NOR2X1
AAND2X2_29 [i_add2_32_ i_add1_32_] _475_ d_lut_AND2X2
AOAI21X1_29 [_474_ _475_ w_C_32_] _476_ d_lut_OAI21X1
ANAND2X1_57 [_476_ _480_] _277__32_ d_lut_NAND2X1
AINVX1_29 [w_C_33_] _484_ d_lut_INVX1
AOR2X2_29 [i_add2_33_ i_add1_33_] _485_ d_lut_OR2X2
ANAND2X1_58 [i_add2_33_ i_add1_33_] _486_ d_lut_NAND2X1
ANAND3X1_30 [_484_ _486_ _485_] _487_ d_lut_NAND3X1
ANOR2X1_30 [i_add2_33_ i_add1_33_] _481_ d_lut_NOR2X1
AAND2X2_30 [i_add2_33_ i_add1_33_] _482_ d_lut_AND2X2
AOAI21X1_30 [_481_ _482_ w_C_33_] _483_ d_lut_OAI21X1
ANAND2X1_59 [_483_ _487_] _277__33_ d_lut_NAND2X1
AINVX1_30 [w_C_34_] _491_ d_lut_INVX1
AOR2X2_30 [i_add2_34_ i_add1_34_] _492_ d_lut_OR2X2
ANAND2X1_60 [i_add2_34_ i_add1_34_] _493_ d_lut_NAND2X1
ANAND3X1_31 [_491_ _493_ _492_] _494_ d_lut_NAND3X1
ANOR2X1_31 [i_add2_34_ i_add1_34_] _488_ d_lut_NOR2X1
AAND2X2_31 [i_add2_34_ i_add1_34_] _489_ d_lut_AND2X2
AOAI21X1_31 [_488_ _489_ w_C_34_] _490_ d_lut_OAI21X1
ANAND2X1_61 [_490_ _494_] _277__34_ d_lut_NAND2X1
AINVX1_31 [w_C_35_] _498_ d_lut_INVX1
AOR2X2_31 [i_add2_35_ i_add1_35_] _499_ d_lut_OR2X2
ANAND2X1_62 [i_add2_35_ i_add1_35_] _500_ d_lut_NAND2X1
ANAND3X1_32 [_498_ _500_ _499_] _501_ d_lut_NAND3X1
ANOR2X1_32 [i_add2_35_ i_add1_35_] _495_ d_lut_NOR2X1
AAND2X2_32 [i_add2_35_ i_add1_35_] _496_ d_lut_AND2X2
AOAI21X1_32 [_495_ _496_ w_C_35_] _497_ d_lut_OAI21X1
ANAND2X1_63 [_497_ _501_] _277__35_ d_lut_NAND2X1
AINVX1_32 [w_C_36_] _505_ d_lut_INVX1
AOR2X2_32 [i_add2_36_ i_add1_36_] _506_ d_lut_OR2X2
ANAND2X1_64 [i_add2_36_ i_add1_36_] _507_ d_lut_NAND2X1
ANAND3X1_33 [_505_ _507_ _506_] _508_ d_lut_NAND3X1
ANOR2X1_33 [i_add2_36_ i_add1_36_] _502_ d_lut_NOR2X1
AAND2X2_33 [i_add2_36_ i_add1_36_] _503_ d_lut_AND2X2
AOAI21X1_33 [_502_ _503_ w_C_36_] _504_ d_lut_OAI21X1
ANAND2X1_65 [_504_ _508_] _277__36_ d_lut_NAND2X1
AINVX1_33 [w_C_37_] _512_ d_lut_INVX1
AOR2X2_33 [i_add2_37_ i_add1_37_] _513_ d_lut_OR2X2
ANAND2X1_66 [i_add2_37_ i_add1_37_] _514_ d_lut_NAND2X1
ANAND3X1_34 [_512_ _514_ _513_] _515_ d_lut_NAND3X1
ANOR2X1_34 [i_add2_37_ i_add1_37_] _509_ d_lut_NOR2X1
AAND2X2_34 [i_add2_37_ i_add1_37_] _510_ d_lut_AND2X2
AOAI21X1_34 [_509_ _510_ w_C_37_] _511_ d_lut_OAI21X1
ANAND2X1_67 [_511_ _515_] _277__37_ d_lut_NAND2X1
AINVX1_34 [w_C_38_] _519_ d_lut_INVX1
AOR2X2_34 [i_add2_38_ i_add1_38_] _520_ d_lut_OR2X2
ANAND2X1_68 [i_add2_38_ i_add1_38_] _521_ d_lut_NAND2X1
ANAND3X1_35 [_519_ _521_ _520_] _522_ d_lut_NAND3X1
ANOR2X1_35 [i_add2_38_ i_add1_38_] _516_ d_lut_NOR2X1
AAND2X2_35 [i_add2_38_ i_add1_38_] _517_ d_lut_AND2X2
AOAI21X1_35 [_516_ _517_ w_C_38_] _518_ d_lut_OAI21X1
ANAND2X1_69 [_518_ _522_] _277__38_ d_lut_NAND2X1
AINVX1_35 [w_C_39_] _526_ d_lut_INVX1
AOR2X2_35 [i_add2_39_ i_add1_39_] _527_ d_lut_OR2X2
ANAND2X1_70 [i_add2_39_ i_add1_39_] _528_ d_lut_NAND2X1
ANAND3X1_36 [_526_ _528_ _527_] _529_ d_lut_NAND3X1
ANOR2X1_36 [i_add2_39_ i_add1_39_] _523_ d_lut_NOR2X1
AAND2X2_36 [i_add2_39_ i_add1_39_] _524_ d_lut_AND2X2
AOAI21X1_36 [_523_ _524_ w_C_39_] _525_ d_lut_OAI21X1
ANAND2X1_71 [_525_ _529_] _277__39_ d_lut_NAND2X1
AINVX1_36 [w_C_40_] _533_ d_lut_INVX1
AOR2X2_36 [i_add2_40_ i_add1_40_] _534_ d_lut_OR2X2
ANAND2X1_72 [i_add2_40_ i_add1_40_] _535_ d_lut_NAND2X1
ANAND3X1_37 [_533_ _535_ _534_] _536_ d_lut_NAND3X1
ANOR2X1_37 [i_add2_40_ i_add1_40_] _530_ d_lut_NOR2X1
AAND2X2_37 [i_add2_40_ i_add1_40_] _531_ d_lut_AND2X2
AOAI21X1_37 [_530_ _531_ w_C_40_] _532_ d_lut_OAI21X1
ANAND2X1_73 [_532_ _536_] _277__40_ d_lut_NAND2X1
AINVX1_37 [w_C_41_] _540_ d_lut_INVX1
AOR2X2_37 [i_add2_41_ i_add1_41_] _541_ d_lut_OR2X2
ANAND2X1_74 [i_add2_41_ i_add1_41_] _542_ d_lut_NAND2X1
ANAND3X1_38 [_540_ _542_ _541_] _543_ d_lut_NAND3X1
ANOR2X1_38 [i_add2_41_ i_add1_41_] _537_ d_lut_NOR2X1
AAND2X2_38 [i_add2_41_ i_add1_41_] _538_ d_lut_AND2X2
AOAI21X1_38 [_537_ _538_ w_C_41_] _539_ d_lut_OAI21X1
ANAND2X1_75 [_539_ _543_] _277__41_ d_lut_NAND2X1
AINVX1_38 [w_C_42_] _547_ d_lut_INVX1
AOR2X2_38 [i_add2_42_ i_add1_42_] _548_ d_lut_OR2X2
ANAND2X1_76 [i_add2_42_ i_add1_42_] _549_ d_lut_NAND2X1
ANAND3X1_39 [_547_ _549_ _548_] _550_ d_lut_NAND3X1
ANOR2X1_39 [i_add2_42_ i_add1_42_] _544_ d_lut_NOR2X1
AAND2X2_39 [i_add2_42_ i_add1_42_] _545_ d_lut_AND2X2
AOAI21X1_39 [_544_ _545_ w_C_42_] _546_ d_lut_OAI21X1
ANAND2X1_77 [_546_ _550_] _277__42_ d_lut_NAND2X1
AINVX1_39 [w_C_43_] _554_ d_lut_INVX1
AOR2X2_39 [i_add2_43_ i_add1_43_] _555_ d_lut_OR2X2
ANAND2X1_78 [i_add2_43_ i_add1_43_] _556_ d_lut_NAND2X1
ANAND3X1_40 [_554_ _556_ _555_] _557_ d_lut_NAND3X1
ANOR2X1_40 [i_add2_43_ i_add1_43_] _551_ d_lut_NOR2X1
AAND2X2_40 [i_add2_43_ i_add1_43_] _552_ d_lut_AND2X2
AOAI21X1_40 [_551_ _552_ w_C_43_] _553_ d_lut_OAI21X1
ANAND2X1_79 [_553_ _557_] _277__43_ d_lut_NAND2X1
AINVX1_40 [w_C_44_] _561_ d_lut_INVX1
AOR2X2_40 [i_add2_44_ i_add1_44_] _562_ d_lut_OR2X2
ANAND2X1_80 [i_add2_44_ i_add1_44_] _563_ d_lut_NAND2X1
ANAND3X1_41 [_561_ _563_ _562_] _564_ d_lut_NAND3X1
ANOR2X1_41 [i_add2_44_ i_add1_44_] _558_ d_lut_NOR2X1
AAND2X2_41 [i_add2_44_ i_add1_44_] _559_ d_lut_AND2X2
AOAI21X1_41 [_558_ _559_ w_C_44_] _560_ d_lut_OAI21X1
ANAND2X1_81 [_560_ _564_] _277__44_ d_lut_NAND2X1
AINVX1_41 [w_C_45_] _568_ d_lut_INVX1
AOR2X2_41 [i_add2_45_ i_add1_45_] _569_ d_lut_OR2X2
ANAND2X1_82 [i_add2_45_ i_add1_45_] _570_ d_lut_NAND2X1
ANAND3X1_42 [_568_ _570_ _569_] _571_ d_lut_NAND3X1
ANOR2X1_42 [i_add2_45_ i_add1_45_] _565_ d_lut_NOR2X1
AAND2X2_42 [i_add2_45_ i_add1_45_] _566_ d_lut_AND2X2
AOAI21X1_42 [_565_ _566_ w_C_45_] _567_ d_lut_OAI21X1
ANAND2X1_83 [_567_ _571_] _277__45_ d_lut_NAND2X1
AINVX1_42 [w_C_46_] _575_ d_lut_INVX1
AOR2X2_42 [i_add2_46_ i_add1_46_] _576_ d_lut_OR2X2
ANAND2X1_84 [i_add2_46_ i_add1_46_] _577_ d_lut_NAND2X1
ANAND3X1_43 [_575_ _577_ _576_] _578_ d_lut_NAND3X1
ANOR2X1_43 [i_add2_46_ i_add1_46_] _572_ d_lut_NOR2X1
AAND2X2_43 [i_add2_46_ i_add1_46_] _573_ d_lut_AND2X2
AOAI21X1_43 [_572_ _573_ w_C_46_] _574_ d_lut_OAI21X1
ANAND2X1_85 [_574_ _578_] _277__46_ d_lut_NAND2X1
AINVX1_43 [w_C_47_] _582_ d_lut_INVX1
AOR2X2_43 [i_add2_47_ i_add1_47_] _583_ d_lut_OR2X2
ANAND2X1_86 [i_add2_47_ i_add1_47_] _584_ d_lut_NAND2X1
ANAND3X1_44 [_582_ _584_ _583_] _585_ d_lut_NAND3X1
ANOR2X1_44 [i_add2_47_ i_add1_47_] _579_ d_lut_NOR2X1
AAND2X2_44 [i_add2_47_ i_add1_47_] _580_ d_lut_AND2X2
AOAI21X1_44 [_579_ _580_ w_C_47_] _581_ d_lut_OAI21X1
ANAND2X1_87 [_581_ _585_] _277__47_ d_lut_NAND2X1
AINVX1_44 [w_C_48_] _589_ d_lut_INVX1
AOR2X2_44 [i_add2_48_ i_add1_48_] _590_ d_lut_OR2X2
ANAND2X1_88 [i_add2_48_ i_add1_48_] _591_ d_lut_NAND2X1
ANAND3X1_45 [_589_ _591_ _590_] _592_ d_lut_NAND3X1
ANOR2X1_45 [i_add2_48_ i_add1_48_] _586_ d_lut_NOR2X1
AAND2X2_45 [i_add2_48_ i_add1_48_] _587_ d_lut_AND2X2
AOAI21X1_45 [_586_ _587_ w_C_48_] _588_ d_lut_OAI21X1
ANAND2X1_89 [_588_ _592_] _277__48_ d_lut_NAND2X1
AINVX1_45 [gnd] _596_ d_lut_INVX1
AOR2X2_45 [i_add2_0_ i_add1_0_] _597_ d_lut_OR2X2
ANAND2X1_90 [i_add2_0_ i_add1_0_] _598_ d_lut_NAND2X1
ANAND3X1_46 [_596_ _598_ _597_] _599_ d_lut_NAND3X1
ANOR2X1_46 [i_add2_0_ i_add1_0_] _593_ d_lut_NOR2X1
AAND2X2_46 [i_add2_0_ i_add1_0_] _594_ d_lut_AND2X2
AOAI21X1_46 [_593_ _594_ gnd] _595_ d_lut_OAI21X1
ANAND2X1_91 [_595_ _599_] _277__0_ d_lut_NAND2X1
AINVX1_46 [w_C_1_] _603_ d_lut_INVX1
AOR2X2_46 [i_add2_1_ i_add1_1_] _604_ d_lut_OR2X2
ANAND2X1_92 [i_add2_1_ i_add1_1_] _605_ d_lut_NAND2X1
ANAND3X1_47 [_603_ _605_ _604_] _606_ d_lut_NAND3X1
ANOR2X1_47 [i_add2_1_ i_add1_1_] _600_ d_lut_NOR2X1
AAND2X2_47 [i_add2_1_ i_add1_1_] _601_ d_lut_AND2X2
AOAI21X1_47 [_600_ _601_ w_C_1_] _602_ d_lut_OAI21X1
ANAND2X1_93 [_602_ _606_] _277__1_ d_lut_NAND2X1
AINVX1_47 [w_C_2_] _610_ d_lut_INVX1
AOR2X2_47 [i_add2_2_ i_add1_2_] _611_ d_lut_OR2X2
ANAND2X1_94 [i_add2_2_ i_add1_2_] _612_ d_lut_NAND2X1
ANAND3X1_48 [_610_ _612_ _611_] _613_ d_lut_NAND3X1
ANOR2X1_48 [i_add2_2_ i_add1_2_] _607_ d_lut_NOR2X1
AAND2X2_48 [i_add2_2_ i_add1_2_] _608_ d_lut_AND2X2
AOAI21X1_48 [_607_ _608_ w_C_2_] _609_ d_lut_OAI21X1
ANAND2X1_95 [_609_ _613_] _277__2_ d_lut_NAND2X1
AINVX1_48 [w_C_3_] _617_ d_lut_INVX1
AOR2X2_48 [i_add2_3_ i_add1_3_] _618_ d_lut_OR2X2
ANAND2X1_96 [i_add2_3_ i_add1_3_] _619_ d_lut_NAND2X1
ANAND3X1_49 [_617_ _619_ _618_] _620_ d_lut_NAND3X1
ANOR2X1_49 [i_add2_3_ i_add1_3_] _614_ d_lut_NOR2X1
AAND2X2_49 [i_add2_3_ i_add1_3_] _615_ d_lut_AND2X2
AOAI21X1_49 [_614_ _615_ w_C_3_] _616_ d_lut_OAI21X1
ANAND2X1_97 [_616_ _620_] _277__3_ d_lut_NAND2X1
AINVX1_49 [_202_] _203_ d_lut_INVX1
ANAND3X1_50 [_201_ _203_ _199_] _204_ d_lut_NAND3X1
AOAI21X1_50 [i_add2_35_ i_add1_35_ _204_] _205_ d_lut_OAI21X1
AINVX1_50 [_205_] w_C_36_ d_lut_INVX1
AINVX1_51 [i_add2_36_] _206_ d_lut_INVX1
AINVX1_52 [i_add1_36_] _207_ d_lut_INVX1
ANOR2X1_50 [i_add2_35_ i_add1_35_] _208_ d_lut_NOR2X1
AINVX1_53 [_208_] _209_ d_lut_INVX1
ANOR2X1_51 [i_add2_36_ i_add1_36_] _210_ d_lut_NOR2X1
AINVX1_54 [_210_] _211_ d_lut_INVX1
ANAND3X1_51 [_209_ _211_ _204_] _212_ d_lut_NAND3X1
AOAI21X1_51 [_206_ _207_ _212_] w_C_37_ d_lut_OAI21X1
ANOR2X1_52 [_206_ _207_] _213_ d_lut_NOR2X1
AINVX1_55 [_213_] _214_ d_lut_INVX1
AAND2X2_50 [i_add2_37_ i_add1_37_] _215_ d_lut_AND2X2
AINVX1_56 [_215_] _216_ d_lut_INVX1
ANAND3X1_52 [_214_ _216_ _212_] _217_ d_lut_NAND3X1
AOAI21X1_52 [i_add2_37_ i_add1_37_ _217_] _218_ d_lut_OAI21X1
AINVX1_57 [_218_] w_C_38_ d_lut_INVX1
AINVX1_58 [i_add2_38_] _219_ d_lut_INVX1
AINVX1_59 [i_add1_38_] _220_ d_lut_INVX1
ANOR2X1_53 [i_add2_37_ i_add1_37_] _221_ d_lut_NOR2X1
AINVX1_60 [_221_] _222_ d_lut_INVX1
ANOR2X1_54 [i_add2_38_ i_add1_38_] _223_ d_lut_NOR2X1
AINVX1_61 [_223_] _224_ d_lut_INVX1
ANAND3X1_53 [_222_ _224_ _217_] _225_ d_lut_NAND3X1
AOAI21X1_53 [_219_ _220_ _225_] w_C_39_ d_lut_OAI21X1
ANOR2X1_55 [i_add2_39_ i_add1_39_] _226_ d_lut_NOR2X1
AINVX1_62 [_226_] _227_ d_lut_INVX1
ANOR2X1_56 [_219_ _220_] _228_ d_lut_NOR2X1
AINVX1_63 [_228_] _229_ d_lut_INVX1
ANAND2X1_98 [i_add2_39_ i_add1_39_] _230_ d_lut_NAND2X1
ANAND3X1_54 [_229_ _230_ _225_] _231_ d_lut_NAND3X1
AAND2X2_51 [_231_ _227_] w_C_40_ d_lut_AND2X2
AINVX1_64 [i_add2_40_] _232_ d_lut_INVX1
AINVX1_65 [i_add1_40_] _233_ d_lut_INVX1
ANAND2X1_99 [_232_ _233_] _234_ d_lut_NAND2X1
ANAND3X1_55 [_227_ _234_ _231_] _235_ d_lut_NAND3X1
AOAI21X1_54 [_232_ _233_ _235_] w_C_41_ d_lut_OAI21X1
AINVX1_66 [i_add2_41_] _236_ d_lut_INVX1
AINVX1_67 [i_add1_41_] _237_ d_lut_INVX1
AOAI21X1_55 [i_add2_41_ i_add1_41_ w_C_41_] _238_ d_lut_OAI21X1
AOAI21X1_56 [_236_ _237_ _238_] w_C_42_ d_lut_OAI21X1
AINVX1_68 [i_add2_42_] _239_ d_lut_INVX1
AINVX1_69 [i_add1_42_] _240_ d_lut_INVX1
ANOR2X1_57 [_239_ _240_] _241_ d_lut_NOR2X1
AOR2X2_49 [w_C_42_ _241_] _242_ d_lut_OR2X2
AOAI21X1_57 [i_add2_42_ i_add1_42_ _242_] _243_ d_lut_OAI21X1
AINVX1_70 [_243_] w_C_43_ d_lut_INVX1
AINVX1_71 [_241_] _244_ d_lut_INVX1
ANAND2X1_100 [_236_ _237_] _245_ d_lut_NAND2X1
ANAND2X1_101 [i_add2_40_ i_add1_40_] _246_ d_lut_NAND2X1
ANAND2X1_102 [i_add2_41_ i_add1_41_] _247_ d_lut_NAND2X1
ANAND3X1_56 [_246_ _247_ _235_] _248_ d_lut_NAND3X1
ANAND2X1_103 [_239_ _240_] _249_ d_lut_NAND2X1
ANAND3X1_57 [_245_ _249_ _248_] _250_ d_lut_NAND3X1
ANAND2X1_104 [i_add2_43_ i_add1_43_] _251_ d_lut_NAND2X1
ANAND3X1_58 [_244_ _251_ _250_] _252_ d_lut_NAND3X1
AOAI21X1_58 [i_add2_43_ i_add1_43_ _252_] _253_ d_lut_OAI21X1
AINVX1_72 [_253_] w_C_44_ d_lut_INVX1
AINVX1_73 [i_add2_44_] _254_ d_lut_INVX1
AINVX1_74 [i_add1_44_] _255_ d_lut_INVX1
AOAI21X1_59 [_254_ _255_ _253_] _256_ d_lut_OAI21X1
AOAI21X1_60 [i_add2_44_ i_add1_44_ _256_] _257_ d_lut_OAI21X1
AINVX1_75 [_257_] w_C_45_ d_lut_INVX1
ANAND2X1_105 [i_add2_45_ i_add1_45_] _258_ d_lut_NAND2X1
ANOR2X1_58 [i_add2_45_ i_add1_45_] _259_ d_lut_NOR2X1
AOAI21X1_61 [_259_ _257_ _258_] w_C_46_ d_lut_OAI21X1
ANAND2X1_106 [i_add2_46_ i_add1_46_] _260_ d_lut_NAND2X1
AINVX1_76 [_259_] _261_ d_lut_INVX1
ANOR2X1_59 [_254_ _255_] _262_ d_lut_NOR2X1
AINVX1_77 [_262_] _263_ d_lut_INVX1
ANOR2X1_60 [i_add2_43_ i_add1_43_] _264_ d_lut_NOR2X1
AINVX1_78 [_264_] _265_ d_lut_INVX1
ANAND2X1_107 [_254_ _255_] _266_ d_lut_NAND2X1
ANAND3X1_59 [_265_ _266_ _252_] _267_ d_lut_NAND3X1
ANAND3X1_60 [_263_ _258_ _267_] _268_ d_lut_NAND3X1
AOR2X2_50 [i_add2_46_ i_add1_46_] _269_ d_lut_OR2X2
ANAND3X1_61 [_261_ _269_ _268_] _270_ d_lut_NAND3X1
ANAND2X1_108 [_260_ _270_] w_C_47_ d_lut_NAND2X1
AOR2X2_51 [i_add2_47_ i_add1_47_] _271_ d_lut_OR2X2
ANAND2X1_109 [i_add2_47_ i_add1_47_] _272_ d_lut_NAND2X1
ANAND3X1_62 [_260_ _272_ _270_] _273_ d_lut_NAND3X1
AAND2X2_52 [_273_ _271_] w_C_48_ d_lut_AND2X2
ANAND2X1_110 [i_add2_48_ i_add1_48_] _274_ d_lut_NAND2X1
AOR2X2_52 [i_add2_48_ i_add1_48_] _275_ d_lut_OR2X2
ANAND3X1_63 [_271_ _275_ _273_] _276_ d_lut_NAND3X1
ANAND2X1_111 [_274_ _276_] w_C_49_ d_lut_NAND2X1
ANAND2X1_112 [i_add2_0_ i_add1_0_] _0_ d_lut_NAND2X1
AINVX1_79 [_0_] w_C_1_ d_lut_INVX1
ANAND2X1_113 [i_add2_1_ i_add1_1_] _1_ d_lut_NAND2X1
ANAND2X1_114 [_0_ _1_] _2_ d_lut_NAND2X1
AOAI21X1_62 [i_add2_1_ i_add1_1_ _2_] _3_ d_lut_OAI21X1
AINVX1_80 [_3_] w_C_2_ d_lut_INVX1
ANAND2X1_115 [i_add2_2_ i_add1_2_] _4_ d_lut_NAND2X1
AOR2X2_53 [i_add2_1_ i_add1_1_] _5_ d_lut_OR2X2
AOR2X2_54 [i_add2_2_ i_add1_2_] _6_ d_lut_OR2X2
ANAND3X1_64 [_5_ _6_ _2_] _7_ d_lut_NAND3X1
ANAND2X1_116 [_4_ _7_] w_C_3_ d_lut_NAND2X1
AOR2X2_55 [i_add2_3_ i_add1_3_] _8_ d_lut_OR2X2
ANAND2X1_117 [i_add2_3_ i_add1_3_] _9_ d_lut_NAND2X1
ANAND3X1_65 [_4_ _9_ _7_] _10_ d_lut_NAND3X1
AAND2X2_53 [_10_ _8_] w_C_4_ d_lut_AND2X2
ANAND2X1_118 [i_add2_4_ i_add1_4_] _11_ d_lut_NAND2X1
AOR2X2_56 [i_add2_4_ i_add1_4_] _12_ d_lut_OR2X2
ANAND3X1_66 [_8_ _12_ _10_] _13_ d_lut_NAND3X1
ANAND2X1_119 [_11_ _13_] w_C_5_ d_lut_NAND2X1
ANOR2X1_61 [i_add2_5_ i_add1_5_] _14_ d_lut_NOR2X1
AINVX1_81 [_14_] _15_ d_lut_INVX1
ANAND2X1_120 [i_add2_5_ i_add1_5_] _16_ d_lut_NAND2X1
ANAND3X1_67 [_11_ _16_ _13_] _17_ d_lut_NAND3X1
AAND2X2_54 [_17_ _15_] w_C_6_ d_lut_AND2X2
AAND2X2_55 [i_add2_6_ i_add1_6_] _18_ d_lut_AND2X2
AINVX1_82 [_18_] _19_ d_lut_INVX1
ANOR2X1_62 [i_add2_6_ i_add1_6_] _20_ d_lut_NOR2X1
AINVX1_83 [_20_] _21_ d_lut_INVX1
ANAND3X1_68 [_15_ _21_ _17_] _22_ d_lut_NAND3X1
AAND2X2_56 [_22_ _19_] _23_ d_lut_AND2X2
AINVX1_84 [_23_] w_C_7_ d_lut_INVX1
AAND2X2_57 [i_add2_7_ i_add1_7_] _24_ d_lut_AND2X2
AINVX1_85 [_24_] _25_ d_lut_INVX1
ANOR2X1_63 [i_add2_7_ i_add1_7_] _26_ d_lut_NOR2X1
AOAI21X1_63 [_26_ _23_ _25_] w_C_8_ d_lut_OAI21X1
AAND2X2_58 [i_add2_8_ i_add1_8_] _27_ d_lut_AND2X2
AINVX1_86 [_27_] _28_ d_lut_INVX1
AINVX1_87 [_26_] _29_ d_lut_INVX1
ANAND3X1_69 [_19_ _25_ _22_] _30_ d_lut_NAND3X1
ANOR2X1_64 [i_add2_8_ i_add1_8_] _31_ d_lut_NOR2X1
AINVX1_88 [_31_] _32_ d_lut_INVX1
ANAND3X1_70 [_29_ _32_ _30_] _33_ d_lut_NAND3X1
AAND2X2_59 [_33_ _28_] _34_ d_lut_AND2X2
AINVX1_89 [_34_] w_C_9_ d_lut_INVX1
AAND2X2_60 [i_add2_9_ i_add1_9_] _35_ d_lut_AND2X2
AINVX1_90 [_35_] _36_ d_lut_INVX1
ANOR2X1_65 [i_add2_9_ i_add1_9_] _37_ d_lut_NOR2X1
AOAI21X1_64 [_37_ _34_ _36_] w_C_10_ d_lut_OAI21X1
AAND2X2_61 [i_add2_10_ i_add1_10_] _38_ d_lut_AND2X2
AINVX1_91 [_38_] _39_ d_lut_INVX1
AINVX1_92 [_37_] _40_ d_lut_INVX1
ANAND3X1_71 [_28_ _36_ _33_] _41_ d_lut_NAND3X1
ANOR2X1_66 [i_add2_10_ i_add1_10_] _42_ d_lut_NOR2X1
AINVX1_93 [_42_] _43_ d_lut_INVX1
ANAND3X1_72 [_40_ _43_ _41_] _44_ d_lut_NAND3X1
AAND2X2_62 [_44_ _39_] _45_ d_lut_AND2X2
AINVX1_94 [_45_] w_C_11_ d_lut_INVX1
AAND2X2_63 [i_add2_11_ i_add1_11_] _46_ d_lut_AND2X2
AINVX1_95 [_46_] _47_ d_lut_INVX1
ANAND3X1_73 [_39_ _47_ _44_] _48_ d_lut_NAND3X1
AOAI21X1_65 [i_add2_11_ i_add1_11_ _48_] _49_ d_lut_OAI21X1
AINVX1_96 [_49_] w_C_12_ d_lut_INVX1
AINVX1_97 [i_add2_12_] _50_ d_lut_INVX1
AINVX1_98 [i_add1_12_] _51_ d_lut_INVX1
ANOR2X1_67 [i_add2_11_ i_add1_11_] _52_ d_lut_NOR2X1
AINVX1_99 [_52_] _53_ d_lut_INVX1
ANOR2X1_68 [i_add2_12_ i_add1_12_] _54_ d_lut_NOR2X1
AINVX1_100 [_54_] _55_ d_lut_INVX1
ANAND3X1_74 [_53_ _55_ _48_] _56_ d_lut_NAND3X1
AOAI21X1_66 [_50_ _51_ _56_] w_C_13_ d_lut_OAI21X1
ANOR2X1_69 [_50_ _51_] _57_ d_lut_NOR2X1
AINVX1_101 [_57_] _58_ d_lut_INVX1
AAND2X2_64 [i_add2_13_ i_add1_13_] _59_ d_lut_AND2X2
AINVX1_102 [_59_] _60_ d_lut_INVX1
ANAND3X1_75 [_58_ _60_ _56_] _61_ d_lut_NAND3X1
AOAI21X1_67 [i_add2_13_ i_add1_13_ _61_] _62_ d_lut_OAI21X1
AINVX1_103 [_62_] w_C_14_ d_lut_INVX1
AINVX1_104 [i_add2_14_] _63_ d_lut_INVX1
AINVX1_105 [i_add1_14_] _64_ d_lut_INVX1
ANOR2X1_70 [i_add2_13_ i_add1_13_] _65_ d_lut_NOR2X1
AINVX1_106 [_65_] _66_ d_lut_INVX1
ANOR2X1_71 [i_add2_14_ i_add1_14_] _67_ d_lut_NOR2X1
AINVX1_107 [_67_] _68_ d_lut_INVX1
ANAND3X1_76 [_66_ _68_ _61_] _69_ d_lut_NAND3X1
AOAI21X1_68 [_63_ _64_ _69_] w_C_15_ d_lut_OAI21X1
ANOR2X1_72 [_63_ _64_] _70_ d_lut_NOR2X1