* XSpice netlist created from SPICE and liberty sources by spi2xspice.py
*SPICE netlist created from BLIF module cla_41bit by blif2BSpice
.subckt cla_41bit a_vdd a_gnd a_i_add1_0_ a_i_add1_1_ a_i_add1_2_ a_i_add1_3_ a_i_add1_4_ a_i_add1_5_ a_i_add1_6_ a_i_add1_7_ a_i_add1_8_ a_i_add1_9_ a_i_add1_10_ a_i_add1_11_ a_i_add1_12_ a_i_add1_13_ a_i_add1_14_ a_i_add1_15_ a_i_add1_16_ a_i_add1_17_ a_i_add1_18_ a_i_add1_19_ a_i_add1_20_ a_i_add1_21_ a_i_add1_22_ a_i_add1_23_ a_i_add1_24_ a_i_add1_25_ a_i_add1_26_ a_i_add1_27_ a_i_add1_28_ a_i_add1_29_ a_i_add1_30_ a_i_add1_31_ a_i_add1_32_ a_i_add1_33_ a_i_add1_34_ a_i_add1_35_ a_i_add1_36_ a_i_add1_37_ a_i_add1_38_ a_i_add1_39_ a_i_add1_40_ a_i_add2_0_ a_i_add2_1_ a_i_add2_2_ a_i_add2_3_ a_i_add2_4_ a_i_add2_5_ a_i_add2_6_ a_i_add2_7_ a_i_add2_8_ a_i_add2_9_ a_i_add2_10_ a_i_add2_11_ a_i_add2_12_ a_i_add2_13_ a_i_add2_14_ a_i_add2_15_ a_i_add2_16_ a_i_add2_17_ a_i_add2_18_ a_i_add2_19_ a_i_add2_20_ a_i_add2_21_ a_i_add2_22_ a_i_add2_23_ a_i_add2_24_ a_i_add2_25_ a_i_add2_26_ a_i_add2_27_ a_i_add2_28_ a_i_add2_29_ a_i_add2_30_ a_i_add2_31_ a_i_add2_32_ a_i_add2_33_ a_i_add2_34_ a_i_add2_35_ a_i_add2_36_ a_i_add2_37_ a_i_add2_38_ a_i_add2_39_ a_i_add2_40_ a_o_result_0_ a_o_result_1_ a_o_result_2_ a_o_result_3_ a_o_result_4_ a_o_result_5_ a_o_result_6_ a_o_result_7_ a_o_result_8_ a_o_result_9_ a_o_result_10_ a_o_result_11_ a_o_result_12_ a_o_result_13_ a_o_result_14_ a_o_result_15_ a_o_result_16_ a_o_result_17_ a_o_result_18_ a_o_result_19_ a_o_result_20_ a_o_result_21_ a_o_result_22_ a_o_result_23_ a_o_result_24_ a_o_result_25_ a_o_result_26_ a_o_result_27_ a_o_result_28_ a_o_result_29_ a_o_result_30_ a_o_result_31_ a_o_result_32_ a_o_result_33_ a_o_result_34_ a_o_result_35_ a_o_result_36_ a_o_result_37_ a_o_result_38_ a_o_result_39_ a_o_result_40_ a_o_result_41_
AOR2X2_1 [i_add2_23_ i_add1_23_] _376_ d_lut_OR2X2
ANAND2X1_1 [i_add2_23_ i_add1_23_] _377_ d_lut_NAND2X1
ANAND3X1_1 [_375_ _377_ _376_] _378_ d_lut_NAND3X1
ANOR2X1_1 [i_add2_23_ i_add1_23_] _372_ d_lut_NOR2X1
AAND2X2_1 [i_add2_23_ i_add1_23_] _373_ d_lut_AND2X2
AOAI21X1_1 [_372_ _373_ w_C_23_] _374_ d_lut_OAI21X1
ANAND2X1_2 [_374_ _378_] _238__23_ d_lut_NAND2X1
AINVX1_1 [w_C_24_] _382_ d_lut_INVX1
AOR2X2_2 [i_add2_24_ i_add1_24_] _383_ d_lut_OR2X2
ANAND2X1_3 [i_add2_24_ i_add1_24_] _384_ d_lut_NAND2X1
ANAND3X1_2 [_382_ _384_ _383_] _385_ d_lut_NAND3X1
ANOR2X1_2 [i_add2_24_ i_add1_24_] _379_ d_lut_NOR2X1
AAND2X2_2 [i_add2_24_ i_add1_24_] _380_ d_lut_AND2X2
AOAI21X1_2 [_379_ _380_ w_C_24_] _381_ d_lut_OAI21X1
ANAND2X1_4 [_381_ _385_] _238__24_ d_lut_NAND2X1
AINVX1_2 [w_C_25_] _389_ d_lut_INVX1
AOR2X2_3 [i_add2_25_ i_add1_25_] _390_ d_lut_OR2X2
ANAND2X1_5 [i_add2_25_ i_add1_25_] _391_ d_lut_NAND2X1
ANAND3X1_3 [_389_ _391_ _390_] _392_ d_lut_NAND3X1
ANOR2X1_3 [i_add2_25_ i_add1_25_] _386_ d_lut_NOR2X1
AAND2X2_3 [i_add2_25_ i_add1_25_] _387_ d_lut_AND2X2
AOAI21X1_3 [_386_ _387_ w_C_25_] _388_ d_lut_OAI21X1
ANAND2X1_6 [_388_ _392_] _238__25_ d_lut_NAND2X1
AINVX1_3 [w_C_26_] _396_ d_lut_INVX1
AOR2X2_4 [i_add2_26_ i_add1_26_] _397_ d_lut_OR2X2
ANAND2X1_7 [i_add2_26_ i_add1_26_] _398_ d_lut_NAND2X1
ANAND3X1_4 [_396_ _398_ _397_] _399_ d_lut_NAND3X1
ANOR2X1_4 [i_add2_26_ i_add1_26_] _393_ d_lut_NOR2X1
AAND2X2_4 [i_add2_26_ i_add1_26_] _394_ d_lut_AND2X2
AOAI21X1_4 [_393_ _394_ w_C_26_] _395_ d_lut_OAI21X1
ANAND2X1_8 [_395_ _399_] _238__26_ d_lut_NAND2X1
AINVX1_4 [w_C_27_] _403_ d_lut_INVX1
AOR2X2_5 [i_add2_27_ i_add1_27_] _404_ d_lut_OR2X2
ANAND2X1_9 [i_add2_27_ i_add1_27_] _405_ d_lut_NAND2X1
ANAND3X1_5 [_403_ _405_ _404_] _406_ d_lut_NAND3X1
ANOR2X1_5 [i_add2_27_ i_add1_27_] _400_ d_lut_NOR2X1
AAND2X2_5 [i_add2_27_ i_add1_27_] _401_ d_lut_AND2X2
AOAI21X1_5 [_400_ _401_ w_C_27_] _402_ d_lut_OAI21X1
ANAND2X1_10 [_402_ _406_] _238__27_ d_lut_NAND2X1
AINVX1_5 [w_C_28_] _410_ d_lut_INVX1
AOR2X2_6 [i_add2_28_ i_add1_28_] _411_ d_lut_OR2X2
ANAND2X1_11 [i_add2_28_ i_add1_28_] _412_ d_lut_NAND2X1
ANAND3X1_6 [_410_ _412_ _411_] _413_ d_lut_NAND3X1
ANOR2X1_6 [i_add2_28_ i_add1_28_] _407_ d_lut_NOR2X1
AAND2X2_6 [i_add2_28_ i_add1_28_] _408_ d_lut_AND2X2
AOAI21X1_6 [_407_ _408_ w_C_28_] _409_ d_lut_OAI21X1
ANAND2X1_12 [_409_ _413_] _238__28_ d_lut_NAND2X1
AINVX1_6 [w_C_29_] _417_ d_lut_INVX1
AOR2X2_7 [i_add2_29_ i_add1_29_] _418_ d_lut_OR2X2
ANAND2X1_13 [i_add2_29_ i_add1_29_] _419_ d_lut_NAND2X1
ANAND3X1_7 [_417_ _419_ _418_] _420_ d_lut_NAND3X1
ANOR2X1_7 [i_add2_29_ i_add1_29_] _414_ d_lut_NOR2X1
AAND2X2_7 [i_add2_29_ i_add1_29_] _415_ d_lut_AND2X2
AOAI21X1_7 [_414_ _415_ w_C_29_] _416_ d_lut_OAI21X1
ANAND2X1_14 [_416_ _420_] _238__29_ d_lut_NAND2X1
AINVX1_7 [w_C_30_] _424_ d_lut_INVX1
AOR2X2_8 [i_add2_30_ i_add1_30_] _425_ d_lut_OR2X2
ANAND2X1_15 [i_add2_30_ i_add1_30_] _426_ d_lut_NAND2X1
ANAND3X1_8 [_424_ _426_ _425_] _427_ d_lut_NAND3X1
ANOR2X1_8 [i_add2_30_ i_add1_30_] _421_ d_lut_NOR2X1
AAND2X2_8 [i_add2_30_ i_add1_30_] _422_ d_lut_AND2X2
AOAI21X1_8 [_421_ _422_ w_C_30_] _423_ d_lut_OAI21X1
ANAND2X1_16 [_423_ _427_] _238__30_ d_lut_NAND2X1
AINVX1_8 [w_C_31_] _431_ d_lut_INVX1
AOR2X2_9 [i_add2_31_ i_add1_31_] _432_ d_lut_OR2X2
ANAND2X1_17 [i_add2_31_ i_add1_31_] _433_ d_lut_NAND2X1
ANAND3X1_9 [_431_ _433_ _432_] _434_ d_lut_NAND3X1
ANOR2X1_9 [i_add2_31_ i_add1_31_] _428_ d_lut_NOR2X1
AAND2X2_9 [i_add2_31_ i_add1_31_] _429_ d_lut_AND2X2
AOAI21X1_9 [_428_ _429_ w_C_31_] _430_ d_lut_OAI21X1
ANAND2X1_18 [_430_ _434_] _238__31_ d_lut_NAND2X1
AINVX1_9 [w_C_32_] _438_ d_lut_INVX1
AOR2X2_10 [i_add2_32_ i_add1_32_] _439_ d_lut_OR2X2
ANAND2X1_19 [i_add2_32_ i_add1_32_] _440_ d_lut_NAND2X1
ANAND3X1_10 [_438_ _440_ _439_] _441_ d_lut_NAND3X1
ANOR2X1_10 [i_add2_32_ i_add1_32_] _435_ d_lut_NOR2X1
AAND2X2_10 [i_add2_32_ i_add1_32_] _436_ d_lut_AND2X2
AOAI21X1_10 [_435_ _436_ w_C_32_] _437_ d_lut_OAI21X1
ANAND2X1_20 [_437_ _441_] _238__32_ d_lut_NAND2X1
AINVX1_10 [w_C_33_] _445_ d_lut_INVX1
AOR2X2_11 [i_add2_33_ i_add1_33_] _446_ d_lut_OR2X2
ANAND2X1_21 [i_add2_33_ i_add1_33_] _447_ d_lut_NAND2X1
ANAND3X1_11 [_445_ _447_ _446_] _448_ d_lut_NAND3X1
ANOR2X1_11 [i_add2_33_ i_add1_33_] _442_ d_lut_NOR2X1
AAND2X2_11 [i_add2_33_ i_add1_33_] _443_ d_lut_AND2X2
AOAI21X1_11 [_442_ _443_ w_C_33_] _444_ d_lut_OAI21X1
ANAND2X1_22 [_444_ _448_] _238__33_ d_lut_NAND2X1
AINVX1_11 [w_C_34_] _452_ d_lut_INVX1
AOR2X2_12 [i_add2_34_ i_add1_34_] _453_ d_lut_OR2X2
ANAND2X1_23 [i_add2_34_ i_add1_34_] _454_ d_lut_NAND2X1
ANAND3X1_12 [_452_ _454_ _453_] _455_ d_lut_NAND3X1
ANOR2X1_12 [i_add2_34_ i_add1_34_] _449_ d_lut_NOR2X1
AAND2X2_12 [i_add2_34_ i_add1_34_] _450_ d_lut_AND2X2
AOAI21X1_12 [_449_ _450_ w_C_34_] _451_ d_lut_OAI21X1
ANAND2X1_24 [_451_ _455_] _238__34_ d_lut_NAND2X1
AINVX1_12 [w_C_35_] _459_ d_lut_INVX1
AOR2X2_13 [i_add2_35_ i_add1_35_] _460_ d_lut_OR2X2
ANAND2X1_25 [i_add2_35_ i_add1_35_] _461_ d_lut_NAND2X1
ANAND3X1_13 [_459_ _461_ _460_] _462_ d_lut_NAND3X1
ANOR2X1_13 [i_add2_35_ i_add1_35_] _456_ d_lut_NOR2X1
AAND2X2_13 [i_add2_35_ i_add1_35_] _457_ d_lut_AND2X2
AOAI21X1_13 [_456_ _457_ w_C_35_] _458_ d_lut_OAI21X1
ANAND2X1_26 [_458_ _462_] _238__35_ d_lut_NAND2X1
AINVX1_13 [w_C_36_] _466_ d_lut_INVX1
AOR2X2_14 [i_add2_36_ i_add1_36_] _467_ d_lut_OR2X2
ANAND2X1_27 [i_add2_36_ i_add1_36_] _468_ d_lut_NAND2X1
ANAND3X1_14 [_466_ _468_ _467_] _469_ d_lut_NAND3X1
ANOR2X1_14 [i_add2_36_ i_add1_36_] _463_ d_lut_NOR2X1
AAND2X2_14 [i_add2_36_ i_add1_36_] _464_ d_lut_AND2X2
AOAI21X1_14 [_463_ _464_ w_C_36_] _465_ d_lut_OAI21X1
ANAND2X1_28 [_465_ _469_] _238__36_ d_lut_NAND2X1
AINVX1_14 [w_C_37_] _473_ d_lut_INVX1
AOR2X2_15 [i_add2_37_ i_add1_37_] _474_ d_lut_OR2X2
ANAND2X1_29 [i_add2_37_ i_add1_37_] _475_ d_lut_NAND2X1
ANAND3X1_15 [_473_ _475_ _474_] _476_ d_lut_NAND3X1
ANOR2X1_15 [i_add2_37_ i_add1_37_] _470_ d_lut_NOR2X1
AAND2X2_15 [i_add2_37_ i_add1_37_] _471_ d_lut_AND2X2
AOAI21X1_15 [_470_ _471_ w_C_37_] _472_ d_lut_OAI21X1
ANAND2X1_30 [_472_ _476_] _238__37_ d_lut_NAND2X1
AINVX1_15 [w_C_38_] _480_ d_lut_INVX1
AOR2X2_16 [i_add2_38_ i_add1_38_] _481_ d_lut_OR2X2
ANAND2X1_31 [i_add2_38_ i_add1_38_] _482_ d_lut_NAND2X1
ANAND3X1_16 [_480_ _482_ _481_] _483_ d_lut_NAND3X1
ANOR2X1_16 [i_add2_38_ i_add1_38_] _477_ d_lut_NOR2X1
AAND2X2_16 [i_add2_38_ i_add1_38_] _478_ d_lut_AND2X2
AOAI21X1_16 [_477_ _478_ w_C_38_] _479_ d_lut_OAI21X1
ANAND2X1_32 [_479_ _483_] _238__38_ d_lut_NAND2X1
AINVX1_16 [w_C_39_] _487_ d_lut_INVX1
AOR2X2_17 [i_add2_39_ i_add1_39_] _488_ d_lut_OR2X2
ANAND2X1_33 [i_add2_39_ i_add1_39_] _489_ d_lut_NAND2X1
ANAND3X1_17 [_487_ _489_ _488_] _490_ d_lut_NAND3X1
ANOR2X1_17 [i_add2_39_ i_add1_39_] _484_ d_lut_NOR2X1
AAND2X2_17 [i_add2_39_ i_add1_39_] _485_ d_lut_AND2X2
AOAI21X1_17 [_484_ _485_ w_C_39_] _486_ d_lut_OAI21X1
ANAND2X1_34 [_486_ _490_] _238__39_ d_lut_NAND2X1
AINVX1_17 [w_C_40_] _494_ d_lut_INVX1
AOR2X2_18 [i_add2_40_ i_add1_40_] _495_ d_lut_OR2X2
ANAND2X1_35 [i_add2_40_ i_add1_40_] _496_ d_lut_NAND2X1
ANAND3X1_18 [_494_ _496_ _495_] _497_ d_lut_NAND3X1
ANOR2X1_18 [i_add2_40_ i_add1_40_] _491_ d_lut_NOR2X1
AAND2X2_18 [i_add2_40_ i_add1_40_] _492_ d_lut_AND2X2
AOAI21X1_18 [_491_ _492_ w_C_40_] _493_ d_lut_OAI21X1
ANAND2X1_36 [_493_ _497_] _238__40_ d_lut_NAND2X1
AINVX1_18 [gnd] _501_ d_lut_INVX1
AOR2X2_19 [i_add2_0_ i_add1_0_] _502_ d_lut_OR2X2
ANAND2X1_37 [i_add2_0_ i_add1_0_] _503_ d_lut_NAND2X1
ANAND3X1_19 [_501_ _503_ _502_] _504_ d_lut_NAND3X1
ANOR2X1_19 [i_add2_0_ i_add1_0_] _498_ d_lut_NOR2X1
AAND2X2_19 [i_add2_0_ i_add1_0_] _499_ d_lut_AND2X2
AOAI21X1_19 [_498_ _499_ gnd] _500_ d_lut_OAI21X1
ANAND2X1_38 [_500_ _504_] _238__0_ d_lut_NAND2X1
AINVX1_19 [w_C_1_] _508_ d_lut_INVX1
AOR2X2_20 [i_add2_1_ i_add1_1_] _509_ d_lut_OR2X2
ANAND2X1_39 [i_add2_1_ i_add1_1_] _510_ d_lut_NAND2X1
ANAND3X1_20 [_508_ _510_ _509_] _511_ d_lut_NAND3X1
ANOR2X1_20 [i_add2_1_ i_add1_1_] _505_ d_lut_NOR2X1
AAND2X2_20 [i_add2_1_ i_add1_1_] _506_ d_lut_AND2X2
AOAI21X1_20 [_505_ _506_ w_C_1_] _507_ d_lut_OAI21X1
ANAND2X1_40 [_507_ _511_] _238__1_ d_lut_NAND2X1
AINVX1_20 [w_C_2_] _515_ d_lut_INVX1
AOR2X2_21 [i_add2_2_ i_add1_2_] _516_ d_lut_OR2X2
ANAND2X1_41 [i_add2_2_ i_add1_2_] _517_ d_lut_NAND2X1
ANAND3X1_21 [_515_ _517_ _516_] _518_ d_lut_NAND3X1
ANOR2X1_21 [i_add2_2_ i_add1_2_] _512_ d_lut_NOR2X1
AAND2X2_21 [i_add2_2_ i_add1_2_] _513_ d_lut_AND2X2
AOAI21X1_21 [_512_ _513_ w_C_2_] _514_ d_lut_OAI21X1
ANAND2X1_42 [_514_ _518_] _238__2_ d_lut_NAND2X1
AINVX1_21 [w_C_3_] _522_ d_lut_INVX1
AOR2X2_22 [i_add2_3_ i_add1_3_] _523_ d_lut_OR2X2
ANAND2X1_43 [i_add2_3_ i_add1_3_] _524_ d_lut_NAND2X1
ANAND3X1_22 [_522_ _524_ _523_] _525_ d_lut_NAND3X1
ANOR2X1_22 [i_add2_3_ i_add1_3_] _519_ d_lut_NOR2X1
AAND2X2_22 [i_add2_3_ i_add1_3_] _520_ d_lut_AND2X2
AOAI21X1_22 [_519_ _520_ w_C_3_] _521_ d_lut_OAI21X1
ANAND2X1_44 [_521_ _525_] _238__3_ d_lut_NAND2X1
ANAND2X1_45 [i_add2_0_ i_add1_0_] _0_ d_lut_NAND2X1
AINVX1_22 [_0_] w_C_1_ d_lut_INVX1
ANAND2X1_46 [i_add2_1_ i_add1_1_] _1_ d_lut_NAND2X1
ANAND2X1_47 [_0_ _1_] _2_ d_lut_NAND2X1
AOAI21X1_23 [i_add2_1_ i_add1_1_ _2_] _3_ d_lut_OAI21X1
AINVX1_23 [_3_] w_C_2_ d_lut_INVX1
ANAND2X1_48 [i_add2_2_ i_add1_2_] _4_ d_lut_NAND2X1
AOR2X2_23 [i_add2_1_ i_add1_1_] _5_ d_lut_OR2X2
AOR2X2_24 [i_add2_2_ i_add1_2_] _6_ d_lut_OR2X2
ANAND3X1_23 [_5_ _6_ _2_] _7_ d_lut_NAND3X1
ANAND2X1_49 [_4_ _7_] w_C_3_ d_lut_NAND2X1
ANAND2X1_50 [i_add2_3_ i_add1_3_] _8_ d_lut_NAND2X1
ANAND3X1_24 [_4_ _8_ _7_] _9_ d_lut_NAND3X1
AOAI21X1_24 [i_add2_3_ i_add1_3_ _9_] _10_ d_lut_OAI21X1
AINVX1_24 [_10_] w_C_4_ d_lut_INVX1
ANAND2X1_51 [i_add2_4_ i_add1_4_] _11_ d_lut_NAND2X1
AOR2X2_25 [i_add2_3_ i_add1_3_] _12_ d_lut_OR2X2
AOR2X2_26 [i_add2_4_ i_add1_4_] _13_ d_lut_OR2X2
ANAND3X1_25 [_12_ _13_ _9_] _14_ d_lut_NAND3X1
ANAND2X1_52 [_11_ _14_] w_C_5_ d_lut_NAND2X1
ANAND2X1_53 [i_add2_5_ i_add1_5_] _15_ d_lut_NAND2X1
ANAND3X1_26 [_11_ _15_ _14_] _16_ d_lut_NAND3X1
AOAI21X1_25 [i_add2_5_ i_add1_5_ _16_] _17_ d_lut_OAI21X1
AINVX1_25 [_17_] w_C_6_ d_lut_INVX1
AINVX1_26 [i_add2_6_] _18_ d_lut_INVX1
AINVX1_27 [i_add1_6_] _19_ d_lut_INVX1
ANOR2X1_23 [i_add2_5_ i_add1_5_] _20_ d_lut_NOR2X1
AINVX1_28 [_20_] _21_ d_lut_INVX1
ANOR2X1_24 [i_add2_6_ i_add1_6_] _22_ d_lut_NOR2X1
AINVX1_29 [_22_] _23_ d_lut_INVX1
ANAND3X1_27 [_21_ _23_ _16_] _24_ d_lut_NAND3X1
AOAI21X1_26 [_18_ _19_ _24_] w_C_7_ d_lut_OAI21X1
ANOR2X1_25 [_18_ _19_] _25_ d_lut_NOR2X1
AINVX1_30 [_25_] _26_ d_lut_INVX1
AAND2X2_23 [i_add2_7_ i_add1_7_] _27_ d_lut_AND2X2
AINVX1_31 [_27_] _28_ d_lut_INVX1
ANAND3X1_28 [_26_ _28_ _24_] _29_ d_lut_NAND3X1
AOAI21X1_27 [i_add2_7_ i_add1_7_ _29_] _30_ d_lut_OAI21X1
AINVX1_32 [_30_] w_C_8_ d_lut_INVX1
AINVX1_33 [i_add2_8_] _31_ d_lut_INVX1
AINVX1_34 [i_add1_8_] _32_ d_lut_INVX1
ANOR2X1_26 [i_add2_7_ i_add1_7_] _33_ d_lut_NOR2X1
AINVX1_35 [_33_] _34_ d_lut_INVX1
ANOR2X1_27 [i_add2_8_ i_add1_8_] _35_ d_lut_NOR2X1
AINVX1_36 [_35_] _36_ d_lut_INVX1
ANAND3X1_29 [_34_ _36_ _29_] _37_ d_lut_NAND3X1
AOAI21X1_28 [_31_ _32_ _37_] w_C_9_ d_lut_OAI21X1
ANOR2X1_28 [_31_ _32_] _38_ d_lut_NOR2X1
AINVX1_37 [_38_] _39_ d_lut_INVX1
AAND2X2_24 [i_add2_9_ i_add1_9_] _40_ d_lut_AND2X2
AINVX1_38 [_40_] _41_ d_lut_INVX1
ANAND3X1_30 [_39_ _41_ _37_] _42_ d_lut_NAND3X1
AOAI21X1_29 [i_add2_9_ i_add1_9_ _42_] _43_ d_lut_OAI21X1
AINVX1_39 [_43_] w_C_10_ d_lut_INVX1
AINVX1_40 [i_add2_10_] _44_ d_lut_INVX1
AINVX1_41 [i_add1_10_] _45_ d_lut_INVX1
ANOR2X1_29 [i_add2_9_ i_add1_9_] _46_ d_lut_NOR2X1
AINVX1_42 [_46_] _47_ d_lut_INVX1
ANOR2X1_30 [i_add2_10_ i_add1_10_] _48_ d_lut_NOR2X1
AINVX1_43 [_48_] _49_ d_lut_INVX1
ANAND3X1_31 [_47_ _49_ _42_] _50_ d_lut_NAND3X1
AOAI21X1_30 [_44_ _45_ _50_] w_C_11_ d_lut_OAI21X1
ANOR2X1_31 [_44_ _45_] _51_ d_lut_NOR2X1
AINVX1_44 [_51_] _52_ d_lut_INVX1
AAND2X2_25 [i_add2_11_ i_add1_11_] _53_ d_lut_AND2X2
AINVX1_45 [_53_] _54_ d_lut_INVX1
ANAND3X1_32 [_52_ _54_ _50_] _55_ d_lut_NAND3X1
AOAI21X1_31 [i_add2_11_ i_add1_11_ _55_] _56_ d_lut_OAI21X1
AINVX1_46 [_56_] w_C_12_ d_lut_INVX1
AINVX1_47 [i_add2_12_] _57_ d_lut_INVX1
AINVX1_48 [i_add1_12_] _58_ d_lut_INVX1
ANOR2X1_32 [_57_ _58_] _59_ d_lut_NOR2X1
AINVX1_49 [_59_] _60_ d_lut_INVX1
ANOR2X1_33 [i_add2_11_ i_add1_11_] _61_ d_lut_NOR2X1
AINVX1_50 [_61_] _62_ d_lut_INVX1
ANOR2X1_34 [i_add2_12_ i_add1_12_] _63_ d_lut_NOR2X1
AINVX1_51 [_63_] _64_ d_lut_INVX1
ANAND3X1_33 [_62_ _64_ _55_] _65_ d_lut_NAND3X1
AAND2X2_26 [_65_ _60_] _66_ d_lut_AND2X2
AINVX1_52 [_66_] w_C_13_ d_lut_INVX1
AAND2X2_27 [i_add2_13_ i_add1_13_] _67_ d_lut_AND2X2
AINVX1_53 [_67_] _68_ d_lut_INVX1
ANAND3X1_34 [_60_ _68_ _65_] _69_ d_lut_NAND3X1
AOAI21X1_32 [i_add2_13_ i_add1_13_ _69_] _70_ d_lut_OAI21X1
AINVX1_54 [_70_] w_C_14_ d_lut_INVX1
AINVX1_55 [i_add2_14_] _71_ d_lut_INVX1
AINVX1_56 [i_add1_14_] _72_ d_lut_INVX1
ANOR2X1_35 [_71_ _72_] _73_ d_lut_NOR2X1
AINVX1_57 [_73_] _74_ d_lut_INVX1
ANOR2X1_36 [i_add2_13_ i_add1_13_] _75_ d_lut_NOR2X1
AINVX1_58 [_75_] _76_ d_lut_INVX1
ANOR2X1_37 [i_add2_14_ i_add1_14_] _77_ d_lut_NOR2X1
AINVX1_59 [_77_] _78_ d_lut_INVX1
ANAND3X1_35 [_76_ _78_ _69_] _79_ d_lut_NAND3X1
AAND2X2_28 [_79_ _74_] _80_ d_lut_AND2X2
AINVX1_60 [_80_] w_C_15_ d_lut_INVX1
AAND2X2_29 [i_add2_15_ i_add1_15_] _81_ d_lut_AND2X2
AINVX1_61 [_81_] _82_ d_lut_INVX1
ANAND3X1_36 [_74_ _82_ _79_] _83_ d_lut_NAND3X1
AOAI21X1_33 [i_add2_15_ i_add1_15_ _83_] _84_ d_lut_OAI21X1
AINVX1_62 [_84_] w_C_16_ d_lut_INVX1
AINVX1_63 [i_add2_16_] _85_ d_lut_INVX1
AINVX1_64 [i_add1_16_] _86_ d_lut_INVX1
ANOR2X1_38 [_85_ _86_] _87_ d_lut_NOR2X1
AINVX1_65 [_87_] _88_ d_lut_INVX1
ANOR2X1_39 [i_add2_15_ i_add1_15_] _89_ d_lut_NOR2X1
AINVX1_66 [_89_] _90_ d_lut_INVX1
ANOR2X1_40 [i_add2_16_ i_add1_16_] _91_ d_lut_NOR2X1
AINVX1_67 [_91_] _92_ d_lut_INVX1
ANAND3X1_37 [_90_ _92_ _83_] _93_ d_lut_NAND3X1
AAND2X2_30 [_93_ _88_] _94_ d_lut_AND2X2
AINVX1_68 [_94_] w_C_17_ d_lut_INVX1
AAND2X2_31 [i_add2_17_ i_add1_17_] _95_ d_lut_AND2X2
AINVX1_69 [_95_] _96_ d_lut_INVX1
ANAND3X1_38 [_88_ _96_ _93_] _97_ d_lut_NAND3X1
AOAI21X1_34 [i_add2_17_ i_add1_17_ _97_] _98_ d_lut_OAI21X1
AINVX1_70 [_98_] w_C_18_ d_lut_INVX1
AINVX1_71 [i_add2_18_] _99_ d_lut_INVX1
AINVX1_72 [i_add1_18_] _100_ d_lut_INVX1
ANOR2X1_41 [_99_ _100_] _101_ d_lut_NOR2X1
AINVX1_73 [_101_] _102_ d_lut_INVX1
ANOR2X1_42 [i_add2_17_ i_add1_17_] _103_ d_lut_NOR2X1
AINVX1_74 [_103_] _104_ d_lut_INVX1
ANOR2X1_43 [i_add2_18_ i_add1_18_] _105_ d_lut_NOR2X1
AINVX1_75 [_105_] _106_ d_lut_INVX1
ANAND3X1_39 [_104_ _106_ _97_] _107_ d_lut_NAND3X1
AAND2X2_32 [_107_ _102_] _108_ d_lut_AND2X2
AINVX1_76 [_108_] w_C_19_ d_lut_INVX1
AAND2X2_33 [i_add2_19_ i_add1_19_] _109_ d_lut_AND2X2
AINVX1_77 [_109_] _110_ d_lut_INVX1
ANAND3X1_40 [_102_ _110_ _107_] _111_ d_lut_NAND3X1
AOAI21X1_35 [i_add2_19_ i_add1_19_ _111_] _112_ d_lut_OAI21X1
AINVX1_78 [_112_] w_C_20_ d_lut_INVX1
AINVX1_79 [i_add2_20_] _113_ d_lut_INVX1
AINVX1_80 [i_add1_20_] _114_ d_lut_INVX1
ANOR2X1_44 [_113_ _114_] _115_ d_lut_NOR2X1
AINVX1_81 [_115_] _116_ d_lut_INVX1
ANOR2X1_45 [i_add2_19_ i_add1_19_] _117_ d_lut_NOR2X1
AINVX1_82 [_117_] _118_ d_lut_INVX1
ANOR2X1_46 [i_add2_20_ i_add1_20_] _119_ d_lut_NOR2X1
AINVX1_83 [_119_] _120_ d_lut_INVX1
ANAND3X1_41 [_118_ _120_ _111_] _121_ d_lut_NAND3X1
AAND2X2_34 [_121_ _116_] _122_ d_lut_AND2X2
AINVX1_84 [_122_] w_C_21_ d_lut_INVX1
AAND2X2_35 [i_add2_21_ i_add1_21_] _123_ d_lut_AND2X2
AINVX1_85 [_123_] _124_ d_lut_INVX1
ANAND3X1_42 [_116_ _124_ _121_] _125_ d_lut_NAND3X1
AOAI21X1_36 [i_add2_21_ i_add1_21_ _125_] _126_ d_lut_OAI21X1
AINVX1_86 [_126_] w_C_22_ d_lut_INVX1
AINVX1_87 [i_add2_22_] _127_ d_lut_INVX1
AINVX1_88 [i_add1_22_] _128_ d_lut_INVX1
ANOR2X1_47 [_127_ _128_] _129_ d_lut_NOR2X1
AINVX1_89 [_129_] _130_ d_lut_INVX1
ANOR2X1_48 [i_add2_21_ i_add1_21_] _131_ d_lut_NOR2X1
AINVX1_90 [_131_] _132_ d_lut_INVX1
ANOR2X1_49 [i_add2_22_ i_add1_22_] _133_ d_lut_NOR2X1
AINVX1_91 [_133_] _134_ d_lut_INVX1
ANAND3X1_43 [_132_ _134_ _125_] _135_ d_lut_NAND3X1
AAND2X2_36 [_135_ _130_] _136_ d_lut_AND2X2
AINVX1_92 [_136_] w_C_23_ d_lut_INVX1
AAND2X2_37 [i_add2_23_ i_add1_23_] _137_ d_lut_AND2X2
AINVX1_93 [_137_] _138_ d_lut_INVX1
ANAND3X1_44 [_130_ _138_ _135_] _139_ d_lut_NAND3X1
AOAI21X1_37 [i_add2_23_ i_add1_23_ _139_] _140_ d_lut_OAI21X1
AINVX1_94 [_140_] w_C_24_ d_lut_INVX1
AINVX1_95 [i_add2_24_] _141_ d_lut_INVX1
AINVX1_96 [i_add1_24_] _142_ d_lut_INVX1
ANOR2X1_50 [_141_ _142_] _143_ d_lut_NOR2X1
AINVX1_97 [_143_] _144_ d_lut_INVX1
ANOR2X1_51 [i_add2_23_ i_add1_23_] _145_ d_lut_NOR2X1
AINVX1_98 [_145_] _146_ d_lut_INVX1
ANOR2X1_52 [i_add2_24_ i_add1_24_] _147_ d_lut_NOR2X1
AINVX1_99 [_147_] _148_ d_lut_INVX1
ANAND3X1_45 [_146_ _148_ _139_] _149_ d_lut_NAND3X1
AAND2X2_38 [_149_ _144_] _150_ d_lut_AND2X2
AINVX1_100 [_150_] w_C_25_ d_lut_INVX1
AAND2X2_39 [i_add2_25_ i_add1_25_] _151_ d_lut_AND2X2
AINVX1_101 [_151_] _152_ d_lut_INVX1
ANAND3X1_46 [_144_ _152_ _149_] _153_ d_lut_NAND3X1
AOAI21X1_38 [i_add2_25_ i_add1_25_ _153_] _154_ d_lut_OAI21X1
AINVX1_102 [_154_] w_C_26_ d_lut_INVX1
AINVX1_103 [i_add2_26_] _155_ d_lut_INVX1
AINVX1_104 [i_add1_26_] _156_ d_lut_INVX1
ANOR2X1_53 [_155_ _156_] _157_ d_lut_NOR2X1
AINVX1_105 [_157_] _158_ d_lut_INVX1
ANOR2X1_54 [i_add2_25_ i_add1_25_] _159_ d_lut_NOR2X1
AINVX1_106 [_159_] _160_ d_lut_INVX1
ANOR2X1_55 [i_add2_26_ i_add1_26_] _161_ d_lut_NOR2X1
AINVX1_107 [_161_] _162_ d_lut_INVX1
ANAND3X1_47 [_160_ _162_ _153_] _163_ d_lut_NAND3X1
AAND2X2_40 [_163_ _158_] _164_ d_lut_AND2X2
AINVX1_108 [_164_] w_C_27_ d_lut_INVX1
AAND2X2_41 [i_add2_27_ i_add1_27_] _165_ d_lut_AND2X2
AINVX1_109 [_165_] _166_ d_lut_INVX1
ANAND3X1_48 [_158_ _166_ _163_] _167_ d_lut_NAND3X1
AOAI21X1_39 [i_add2_27_ i_add1_27_ _167_] _168_ d_lut_OAI21X1
AINVX1_110 [_168_] w_C_28_ d_lut_INVX1
AINVX1_111 [i_add2_28_] _169_ d_lut_INVX1
AINVX1_112 [i_add1_28_] _170_ d_lut_INVX1
ANOR2X1_56 [_169_ _170_] _171_ d_lut_NOR2X1
AINVX1_113 [_171_] _172_ d_lut_INVX1
ANOR2X1_57 [i_add2_27_ i_add1_27_] _173_ d_lut_NOR2X1
AINVX1_114 [_173_] _174_ d_lut_INVX1
ANOR2X1_58 [i_add2_28_ i_add1_28_] _175_ d_lut_NOR2X1
AINVX1_115 [_175_] _176_ d_lut_INVX1
ANAND3X1_49 [_174_ _176_ _167_] _177_ d_lut_NAND3X1
AAND2X2_42 [_177_ _172_] _178_ d_lut_AND2X2
AINVX1_116 [_178_] w_C_29_ d_lut_INVX1
AAND2X2_43 [i_add2_29_ i_add1_29_] _179_ d_lut_AND2X2
AINVX1_117 [_179_] _180_ d_lut_INVX1
ANAND3X1_50 [_172_ _180_ _177_] _181_ d_lut_NAND3X1
AOAI21X1_40 [i_add2_29_ i_add1_29_ _181_] _182_ d_lut_OAI21X1
AINVX1_118 [_182_] w_C_30_ d_lut_INVX1
AINVX1_119 [i_add2_30_] _183_ d_lut_INVX1
AINVX1_120 [i_add1_30_] _184_ d_lut_INVX1
ANOR2X1_59 [_183_ _184_] _185_ d_lut_NOR2X1
AINVX1_121 [_185_] _186_ d_lut_INVX1
ANOR2X1_60 [i_add2_29_ i_add1_29_] _187_ d_lut_NOR2X1
AINVX1_122 [_187_] _188_ d_lut_INVX1
ANOR2X1_61 [i_add2_30_ i_add1_30_] _189_ d_lut_NOR2X1
AINVX1_123 [_189_] _190_ d_lut_INVX1
ANAND3X1_51 [_188_ _190_ _181_] _191_ d_lut_NAND3X1
AAND2X2_44 [_191_ _186_] _192_ d_lut_AND2X2
AINVX1_124 [_192_] w_C_31_ d_lut_INVX1
AAND2X2_45 [i_add2_31_ i_add1_31_] _193_ d_lut_AND2X2
AINVX1_125 [_193_] _194_ d_lut_INVX1
ANAND3X1_52 [_186_ _194_ _191_] _195_ d_lut_NAND3X1
AOAI21X1_41 [i_add2_31_ i_add1_31_ _195_] _196_ d_lut_OAI21X1
AINVX1_126 [_196_] w_C_32_ d_lut_INVX1
ANAND2X1_54 [i_add2_32_ i_add1_32_] _197_ d_lut_NAND2X1
ANOR2X1_62 [i_add2_32_ i_add1_32_] _198_ d_lut_NOR2X1
AOAI21X1_42 [_198_ _196_ _197_] w_C_33_ d_lut_OAI21X1
AOR2X2_27 [i_add2_33_ i_add1_33_] _199_ d_lut_OR2X2
ANOR2X1_63 [i_add2_31_ i_add1_31_] _200_ d_lut_NOR2X1
AINVX1_127 [_200_] _201_ d_lut_INVX1
AINVX1_128 [_198_] _202_ d_lut_INVX1
ANAND3X1_53 [_201_ _202_ _195_] _203_ d_lut_NAND3X1
ANAND2X1_55 [i_add2_33_ i_add1_33_] _204_ d_lut_NAND2X1
ANAND3X1_54 [_197_ _204_ _203_] _205_ d_lut_NAND3X1
AAND2X2_46 [_205_ _199_] w_C_34_ d_lut_AND2X2
AINVX1_129 [i_add2_34_] _206_ d_lut_INVX1
AINVX1_130 [i_add1_34_] _207_ d_lut_INVX1
ANAND2X1_56 [_206_ _207_] _208_ d_lut_NAND2X1
ANAND3X1_55 [_199_ _208_ _205_] _209_ d_lut_NAND3X1
AOAI21X1_43 [_206_ _207_ _209_] w_C_35_ d_lut_OAI21X1
AINVX1_131 [i_add2_35_] _210_ d_lut_INVX1
AINVX1_132 [i_add1_35_] _211_ d_lut_INVX1
AOAI21X1_44 [i_add2_35_ i_add1_35_ w_C_35_] _212_ d_lut_OAI21X1
AOAI21X1_45 [_210_ _211_ _212_] w_C_36_ d_lut_OAI21X1
AINVX1_133 [i_add2_36_] _213_ d_lut_INVX1
AINVX1_134 [i_add1_36_] _214_ d_lut_INVX1
ANOR2X1_64 [_213_ _214_] _215_ d_lut_NOR2X1
AOR2X2_28 [w_C_36_ _215_] _216_ d_lut_OR2X2
AOAI21X1_46 [i_add2_36_ i_add1_36_ _216_] _217_ d_lut_OAI21X1
AINVX1_135 [_217_] w_C_37_ d_lut_INVX1
ANAND2X1_57 [i_add2_37_ i_add1_37_] _218_ d_lut_NAND2X1
ANOR2X1_65 [i_add2_37_ i_add1_37_] _219_ d_lut_NOR2X1
AOAI21X1_47 [_219_ _217_ _218_] w_C_38_ d_lut_OAI21X1
ANAND2X1_58 [i_add2_38_ i_add1_38_] _220_ d_lut_NAND2X1
AINVX1_136 [_219_] _221_ d_lut_INVX1
AINVX1_137 [_215_] _222_ d_lut_INVX1
ANAND2X1_59 [_210_ _211_] _223_ d_lut_NAND2X1
ANAND2X1_60 [i_add2_34_ i_add1_34_] _224_ d_lut_NAND2X1
ANAND2X1_61 [i_add2_35_ i_add1_35_] _225_ d_lut_NAND2X1
ANAND3X1_56 [_224_ _225_ _209_] _226_ d_lut_NAND3X1
ANAND2X1_62 [_213_ _214_] _227_ d_lut_NAND2X1
ANAND3X1_57 [_223_ _227_ _226_] _228_ d_lut_NAND3X1
ANAND3X1_58 [_222_ _218_ _228_] _229_ d_lut_NAND3X1
AOR2X2_29 [i_add2_38_ i_add1_38_] _230_ d_lut_OR2X2
ANAND3X1_59 [_221_ _230_ _229_] _231_ d_lut_NAND3X1
ANAND2X1_63 [_220_ _231_] w_C_39_ d_lut_NAND2X1
AOR2X2_30 [i_add2_39_ i_add1_39_] _232_ d_lut_OR2X2
ANAND2X1_64 [i_add2_39_ i_add1_39_] _233_ d_lut_NAND2X1
ANAND3X1_60 [_220_ _233_ _231_] _234_ d_lut_NAND3X1
AAND2X2_47 [_234_ _232_] w_C_40_ d_lut_AND2X2
ANAND2X1_65 [i_add2_40_ i_add1_40_] _235_ d_lut_NAND2X1
AOR2X2_31 [i_add2_40_ i_add1_40_] _236_ d_lut_OR2X2
ANAND3X1_61 [_232_ _236_ _234_] _237_ d_lut_NAND3X1
ANAND2X1_66 [_235_ _237_] w_C_41_ d_lut_NAND2X1
ABUFX2_1 [_238__0_] o_result_0_ d_lut_BUFX2
ABUFX2_2 [_238__1_] o_result_1_ d_lut_BUFX2
ABUFX2_3 [_238__2_] o_result_2_ d_lut_BUFX2
ABUFX2_4 [_238__3_] o_result_3_ d_lut_BUFX2
ABUFX2_5 [_238__4_] o_result_4_ d_lut_BUFX2
ABUFX2_6 [_238__5_] o_result_5_ d_lut_BUFX2
ABUFX2_7 [_238__6_] o_result_6_ d_lut_BUFX2
ABUFX2_8 [_238__7_] o_result_7_ d_lut_BUFX2
ABUFX2_9 [_238__8_] o_result_8_ d_lut_BUFX2
ABUFX2_10 [_238__9_] o_result_9_ d_lut_BUFX2
ABUFX2_11 [_238__10_] o_result_10_ d_lut_BUFX2
ABUFX2_12 [_238__11_] o_result_11_ d_lut_BUFX2
ABUFX2_13 [_238__12_] o_result_12_ d_lut_BUFX2
ABUFX2_14 [_238__13_] o_result_13_ d_lut_BUFX2
ABUFX2_15 [_238__14_] o_result_14_ d_lut_BUFX2
ABUFX2_16 [_238__15_] o_result_15_ d_lut_BUFX2
ABUFX2_17 [_238__16_] o_result_16_ d_lut_BUFX2
ABUFX2_18 [_238__17_] o_result_17_ d_lut_BUFX2
ABUFX2_19 [_238__18_] o_result_18_ d_lut_BUFX2
ABUFX2_20 [_238__19_] o_result_19_ d_lut_BUFX2
ABUFX2_21 [_238__20_] o_result_20_ d_lut_BUFX2
ABUFX2_22 [_238__21_] o_result_21_ d_lut_BUFX2
ABUFX2_23 [_238__22_] o_result_22_ d_lut_BUFX2
ABUFX2_24 [_238__23_] o_result_23_ d_lut_BUFX2
ABUFX2_25 [_238__24_] o_result_24_ d_lut_BUFX2
ABUFX2_26 [_238__25_] o_result_25_ d_lut_BUFX2
ABUFX2_27 [_238__26_] o_result_26_ d_lut_BUFX2
ABUFX2_28 [_238__27_] o_result_27_ d_lut_BUFX2
ABUFX2_29 [_238__28_] o_result_28_ d_lut_BUFX2
ABUFX2_30 [_238__29_] o_result_29_ d_lut_BUFX2
ABUFX2_31 [_238__30_] o_result_30_ d_lut_BUFX2
ABUFX2_32 [_238__31_] o_result_31_ d_lut_BUFX2
ABUFX2_33 [_238__32_] o_result_32_ d_lut_BUFX2
ABUFX2_34 [_238__33_] o_result_33_ d_lut_BUFX2
ABUFX2_35 [_238__34_] o_result_34_ d_lut_BUFX2
ABUFX2_36 [_238__35_] o_result_35_ d_lut_BUFX2
ABUFX2_37 [_238__36_] o_result_36_ d_lut_BUFX2
ABUFX2_38 [_238__37_] o_result_37_ d_lut_BUFX2
ABUFX2_39 [_238__38_] o_result_38_ d_lut_BUFX2
ABUFX2_40 [_238__39_] o_result_39_ d_lut_BUFX2
ABUFX2_41 [_238__40_] o_result_40_ d_lut_BUFX2
ABUFX2_42 [w_C_41_] o_result_41_ d_lut_BUFX2
AINVX1_138 [w_C_4_] _242_ d_lut_INVX1
AOR2X2_32 [i_add2_4_ i_add1_4_] _243_ d_lut_OR2X2
ANAND2X1_67 [i_add2_4_ i_add1_4_] _244_ d_lut_NAND2X1
ANAND3X1_62 [_242_ _244_ _243_] _245_ d_lut_NAND3X1
ANOR2X1_66 [i_add2_4_ i_add1_4_] _239_ d_lut_NOR2X1
AAND2X2_48 [i_add2_4_ i_add1_4_] _240_ d_lut_AND2X2
AOAI21X1_48 [_239_ _240_ w_C_4_] _241_ d_lut_OAI21X1
ANAND2X1_68 [_241_ _245_] _238__4_ d_lut_NAND2X1
AINVX1_139 [w_C_5_] _249_ d_lut_INVX1
AOR2X2_33 [i_add2_5_ i_add1_5_] _250_ d_lut_OR2X2
ANAND2X1_69 [i_add2_5_ i_add1_5_] _251_ d_lut_NAND2X1
ANAND3X1_63 [_249_ _251_ _250_] _252_ d_lut_NAND3X1
ANOR2X1_67 [i_add2_5_ i_add1_5_] _246_ d_lut_NOR2X1
AAND2X2_49 [i_add2_5_ i_add1_5_] _247_ d_lut_AND2X2
AOAI21X1_49 [_246_ _247_ w_C_5_] _248_ d_lut_OAI21X1
ANAND2X1_70 [_248_ _252_] _238__5_ d_lut_NAND2X1
AINVX1_140 [w_C_6_] _256_ d_lut_INVX1
AOR2X2_34 [i_add2_6_ i_add1_6_] _257_ d_lut_OR2X2
ANAND2X1_71 [i_add2_6_ i_add1_6_] _258_ d_lut_NAND2X1
ANAND3X1_64 [_256_ _258_ _257_] _259_ d_lut_NAND3X1
ANOR2X1_68 [i_add2_6_ i_add1_6_] _253_ d_lut_NOR2X1
AAND2X2_50 [i_add2_6_ i_add1_6_] _254_ d_lut_AND2X2
AOAI21X1_50 [_253_ _254_ w_C_6_] _255_ d_lut_OAI21X1
ANAND2X1_72 [_255_ _259_] _238__6_ d_lut_NAND2X1
AINVX1_141 [w_C_7_] _263_ d_lut_INVX1
AOR2X2_35 [i_add2_7_ i_add1_7_] _264_ d_lut_OR2X2
ANAND2X1_73 [i_add2_7_ i_add1_7_] _265_ d_lut_NAND2X1
ANAND3X1_65 [_263_ _265_ _264_] _266_ d_lut_NAND3X1
ANOR2X1_69 [i_add2_7_ i_add1_7_] _260_ d_lut_NOR2X1
AAND2X2_51 [i_add2_7_ i_add1_7_] _261_ d_lut_AND2X2
AOAI21X1_51 [_260_ _261_ w_C_7_] _262_ d_lut_OAI21X1
ANAND2X1_74 [_262_ _266_] _238__7_ d_lut_NAND2X1
AINVX1_142 [w_C_8_] _270_ d_lut_INVX1
AOR2X2_36 [i_add2_8_ i_add1_8_] _271_ d_lut_OR2X2
ANAND2X1_75 [i_add2_8_ i_add1_8_] _272_ d_lut_NAND2X1
ANAND3X1_66 [_270_ _272_ _271_] _273_ d_lut_NAND3X1
ANOR2X1_70 [i_add2_8_ i_add1_8_] _267_ d_lut_NOR2X1
AAND2X2_52 [i_add2_8_ i_add1_8_] _268_ d_lut_AND2X2
AOAI21X1_52 [_267_ _268_ w_C_8_] _269_ d_lut_OAI21X1
ANAND2X1_76 [_269_ _273_] _238__8_ d_lut_NAND2X1
AINVX1_143 [w_C_9_] _277_ d_lut_INVX1
AOR2X2_37 [i_add2_9_ i_add1_9_] _278_ d_lut_OR2X2
ANAND2X1_77 [i_add2_9_ i_add1_9_] _279_ d_lut_NAND2X1
ANAND3X1_67 [_277_ _279_ _278_] _280_ d_lut_NAND3X1
ANOR2X1_71 [i_add2_9_ i_add1_9_] _274_ d_lut_NOR2X1
AAND2X2_53 [i_add2_9_ i_add1_9_] _275_ d_lut_AND2X2
AOAI21X1_53 [_274_ _275_ w_C_9_] _276_ d_lut_OAI21X1
ANAND2X1_78 [_276_ _280_] _238__9_ d_lut_NAND2X1
AINVX1_144 [w_C_10_] _284_ d_lut_INVX1
AOR2X2_38 [i_add2_10_ i_add1_10_] _285_ d_lut_OR2X2
ANAND2X1_79 [i_add2_10_ i_add1_10_] _286_ d_lut_NAND2X1
ANAND3X1_68 [_284_ _286_ _285_] _287_ d_lut_NAND3X1
ANOR2X1_72 [i_add2_10_ i_add1_10_] _281_ d_lut_NOR2X1
AAND2X2_54 [i_add2_10_ i_add1_10_] _282_ d_lut_AND2X2
AOAI21X1_54 [_281_ _282_ w_C_10_] _283_ d_lut_OAI21X1
ANAND2X1_80 [_283_ _287_] _238__10_ d_lut_NAND2X1
AINVX1_145 [w_C_11_] _291_ d_lut_INVX1
AOR2X2_39 [i_add2_11_ i_add1_11_] _292_ d_lut_OR2X2
ANAND2X1_81 [i_add2_11_ i_add1_11_] _293_ d_lut_NAND2X1
ANAND3X1_69 [_291_ _293_ _292_] _294_ d_lut_NAND3X1
ANOR2X1_73 [i_add2_11_ i_add1_11_] _288_ d_lut_NOR2X1
AAND2X2_55 [i_add2_11_ i_add1_11_] _289_ d_lut_AND2X2
AOAI21X1_55 [_288_ _289_ w_C_11_] _290_ d_lut_OAI21X1
ANAND2X1_82 [_290_ _294_] _238__11_ d_lut_NAND2X1
AINVX1_146 [w_C_12_] _298_ d_lut_INVX1
AOR2X2_40 [i_add2_12_ i_add1_12_] _299_ d_lut_OR2X2
ANAND2X1_83 [i_add2_12_ i_add1_12_] _300_ d_lut_NAND2X1
ANAND3X1_70 [_298_ _300_ _299_] _301_ d_lut_NAND3X1
ANOR2X1_74 [i_add2_12_ i_add1_12_] _295_ d_lut_NOR2X1
AAND2X2_56 [i_add2_12_ i_add1_12_] _296_ d_lut_AND2X2
AOAI21X1_56 [_295_ _296_ w_C_12_] _297_ d_lut_OAI21X1
ANAND2X1_84 [_297_ _301_] _238__12_ d_lut_NAND2X1
AINVX1_147 [w_C_13_] _305_ d_lut_INVX1
AOR2X2_41 [i_add2_13_ i_add1_13_] _306_ d_lut_OR2X2
ANAND2X1_85 [i_add2_13_ i_add1_13_] _307_ d_lut_NAND2X1
ANAND3X1_71 [_305_ _307_ _306_] _308_ d_lut_NAND3X1
ANOR2X1_75 [i_add2_13_ i_add1_13_] _302_ d_lut_NOR2X1
AAND2X2_57 [i_add2_13_ i_add1_13_] _303_ d_lut_AND2X2
AOAI21X1_57 [_302_ _303_ w_C_13_] _304_ d_lut_OAI21X1
ANAND2X1_86 [_304_ _308_] _238__13_ d_lut_NAND2X1
AINVX1_148 [w_C_14_] _312_ d_lut_INVX1
AOR2X2_42 [i_add2_14_ i_add1_14_] _313_ d_lut_OR2X2
ANAND2X1_87 [i_add2_14_ i_add1_14_] _314_ d_lut_NAND2X1
ANAND3X1_72 [_312_ _314_ _313_] _315_ d_lut_NAND3X1
ANOR2X1_76 [i_add2_14_ i_add1_14_] _309_ d_lut_NOR2X1
AAND2X2_58 [i_add2_14_ i_add1_14_] _310_ d_lut_AND2X2
AOAI21X1_58 [_309_ _310_ w_C_14_] _311_ d_lut_OAI21X1
ANAND2X1_88 [_311_ _315_] _238__14_ d_lut_NAND2X1
AINVX1_149 [w_C_15_] _319_ d_lut_INVX1
AOR2X2_43 [i_add2_15_ i_add1_15_] _320_ d_lut_OR2X2
ANAND2X1_89 [i_add2_15_ i_add1_15_] _321_ d_lut_NAND2X1
ANAND3X1_73 [_319_ _321_ _320_] _322_ d_lut_NAND3X1