* XSpice netlist created from SPICE and liberty sources by spi2xspice.py
*SPICE netlist created from BLIF module cla_34bit by blif2BSpice
.subckt cla_34bit a_vdd a_gnd a_i_add1_0_ a_i_add1_1_ a_i_add1_2_ a_i_add1_3_ a_i_add1_4_ a_i_add1_5_ a_i_add1_6_ a_i_add1_7_ a_i_add1_8_ a_i_add1_9_ a_i_add1_10_ a_i_add1_11_ a_i_add1_12_ a_i_add1_13_ a_i_add1_14_ a_i_add1_15_ a_i_add1_16_ a_i_add1_17_ a_i_add1_18_ a_i_add1_19_ a_i_add1_20_ a_i_add1_21_ a_i_add1_22_ a_i_add1_23_ a_i_add1_24_ a_i_add1_25_ a_i_add1_26_ a_i_add1_27_ a_i_add1_28_ a_i_add1_29_ a_i_add1_30_ a_i_add1_31_ a_i_add1_32_ a_i_add1_33_ a_i_add2_0_ a_i_add2_1_ a_i_add2_2_ a_i_add2_3_ a_i_add2_4_ a_i_add2_5_ a_i_add2_6_ a_i_add2_7_ a_i_add2_8_ a_i_add2_9_ a_i_add2_10_ a_i_add2_11_ a_i_add2_12_ a_i_add2_13_ a_i_add2_14_ a_i_add2_15_ a_i_add2_16_ a_i_add2_17_ a_i_add2_18_ a_i_add2_19_ a_i_add2_20_ a_i_add2_21_ a_i_add2_22_ a_i_add2_23_ a_i_add2_24_ a_i_add2_25_ a_i_add2_26_ a_i_add2_27_ a_i_add2_28_ a_i_add2_29_ a_i_add2_30_ a_i_add2_31_ a_i_add2_32_ a_i_add2_33_ a_o_result_0_ a_o_result_1_ a_o_result_2_ a_o_result_3_ a_o_result_4_ a_o_result_5_ a_o_result_6_ a_o_result_7_ a_o_result_8_ a_o_result_9_ a_o_result_10_ a_o_result_11_ a_o_result_12_ a_o_result_13_ a_o_result_14_ a_o_result_15_ a_o_result_16_ a_o_result_17_ a_o_result_18_ a_o_result_19_ a_o_result_20_ a_o_result_21_ a_o_result_22_ a_o_result_23_ a_o_result_24_ a_o_result_25_ a_o_result_26_ a_o_result_27_ a_o_result_28_ a_o_result_29_ a_o_result_30_ a_o_result_31_ a_o_result_32_ a_o_result_33_ a_o_result_34_
ANAND2X1_1 [i_add2_0_ i_add1_0_] _0_ d_lut_NAND2X1
AINVX1_1 [_0_] w_C_1_ d_lut_INVX1
ANOR2X1_1 [i_add2_1_ i_add1_1_] _1_ d_lut_NOR2X1
AAOI22X1_1 [i_add2_0_ i_add1_0_ i_add2_1_ i_add1_1_] _2_ d_lut_AOI22X1
ANOR2X1_2 [_1_ _2_] w_C_2_ d_lut_NOR2X1
AINVX1_2 [i_add2_2_] _3_ d_lut_INVX1
AINVX1_3 [i_add1_2_] _4_ d_lut_INVX1
ANAND2X1_2 [_3_ _4_] _5_ d_lut_NAND2X1
ANAND2X1_3 [i_add2_2_ i_add1_2_] _6_ d_lut_NAND2X1
AOAI21X1_1 [_1_ _2_ _6_] _7_ d_lut_OAI21X1
AAND2X2_1 [_7_ _5_] w_C_3_ d_lut_AND2X2
ANAND2X1_4 [i_add2_3_ i_add1_3_] _8_ d_lut_NAND2X1
AOR2X2_1 [i_add2_3_ i_add1_3_] _9_ d_lut_OR2X2
ANAND3X1_1 [_5_ _9_ _7_] _10_ d_lut_NAND3X1
AAND2X2_2 [_10_ _8_] _11_ d_lut_AND2X2
AINVX1_4 [_11_] w_C_4_ d_lut_INVX1
ANAND2X1_5 [i_add2_4_ i_add1_4_] _12_ d_lut_NAND2X1
ANOR2X1_3 [i_add2_4_ i_add1_4_] _13_ d_lut_NOR2X1
AOAI21X1_2 [_13_ _11_ _12_] w_C_5_ d_lut_OAI21X1
AAND2X2_3 [i_add2_5_ i_add1_5_] _14_ d_lut_AND2X2
AINVX1_5 [_14_] _15_ d_lut_INVX1
AINVX1_6 [_13_] _16_ d_lut_INVX1
ANAND3X1_2 [_8_ _12_ _10_] _17_ d_lut_NAND3X1
ANOR2X1_4 [i_add2_5_ i_add1_5_] _18_ d_lut_NOR2X1
AINVX1_7 [_18_] _19_ d_lut_INVX1
ANAND3X1_3 [_16_ _19_ _17_] _20_ d_lut_NAND3X1
AAND2X2_4 [_20_ _15_] _21_ d_lut_AND2X2
AINVX1_8 [_21_] w_C_6_ d_lut_INVX1
AAND2X2_5 [i_add2_6_ i_add1_6_] _22_ d_lut_AND2X2
AINVX1_9 [_22_] _23_ d_lut_INVX1
ANOR2X1_5 [i_add2_6_ i_add1_6_] _24_ d_lut_NOR2X1
AOAI21X1_3 [_24_ _21_ _23_] w_C_7_ d_lut_OAI21X1
AINVX1_10 [i_add2_7_] _25_ d_lut_INVX1
AINVX1_11 [i_add1_7_] _26_ d_lut_INVX1
AINVX1_12 [_24_] _27_ d_lut_INVX1
ANAND3X1_4 [_15_ _23_ _20_] _28_ d_lut_NAND3X1
ANOR2X1_6 [i_add2_7_ i_add1_7_] _29_ d_lut_NOR2X1
AINVX1_13 [_29_] _30_ d_lut_INVX1
ANAND3X1_5 [_27_ _30_ _28_] _31_ d_lut_NAND3X1
AOAI21X1_4 [_25_ _26_ _31_] w_C_8_ d_lut_OAI21X1
ANOR2X1_7 [_25_ _26_] _32_ d_lut_NOR2X1
AINVX1_14 [_32_] _33_ d_lut_INVX1
AAND2X2_6 [i_add2_8_ i_add1_8_] _34_ d_lut_AND2X2
AINVX1_15 [_34_] _35_ d_lut_INVX1
ANAND3X1_6 [_33_ _35_ _31_] _36_ d_lut_NAND3X1
AOAI21X1_5 [i_add2_8_ i_add1_8_ _36_] _37_ d_lut_OAI21X1
AINVX1_16 [_37_] w_C_9_ d_lut_INVX1
AINVX1_17 [i_add2_9_] _38_ d_lut_INVX1
AINVX1_18 [i_add1_9_] _39_ d_lut_INVX1
ANOR2X1_8 [i_add2_8_ i_add1_8_] _40_ d_lut_NOR2X1
AINVX1_19 [_40_] _41_ d_lut_INVX1
ANOR2X1_9 [i_add2_9_ i_add1_9_] _42_ d_lut_NOR2X1
AINVX1_20 [_42_] _43_ d_lut_INVX1
ANAND3X1_7 [_41_ _43_ _36_] _44_ d_lut_NAND3X1
AOAI21X1_6 [_38_ _39_ _44_] w_C_10_ d_lut_OAI21X1
ANOR2X1_10 [_38_ _39_] _45_ d_lut_NOR2X1
AINVX1_21 [_45_] _46_ d_lut_INVX1
AAND2X2_7 [i_add2_10_ i_add1_10_] _47_ d_lut_AND2X2
AINVX1_22 [_47_] _48_ d_lut_INVX1
ANAND3X1_8 [_46_ _48_ _44_] _49_ d_lut_NAND3X1
AOAI21X1_7 [i_add2_10_ i_add1_10_ _49_] _50_ d_lut_OAI21X1
AINVX1_23 [_50_] w_C_11_ d_lut_INVX1
AINVX1_24 [i_add2_11_] _51_ d_lut_INVX1
AINVX1_25 [i_add1_11_] _52_ d_lut_INVX1
ANOR2X1_11 [i_add2_10_ i_add1_10_] _53_ d_lut_NOR2X1
AINVX1_26 [_53_] _54_ d_lut_INVX1
ANOR2X1_12 [i_add2_11_ i_add1_11_] _55_ d_lut_NOR2X1
AINVX1_27 [_55_] _56_ d_lut_INVX1
ANAND3X1_9 [_54_ _56_ _49_] _57_ d_lut_NAND3X1
AOAI21X1_8 [_51_ _52_ _57_] w_C_12_ d_lut_OAI21X1
ANOR2X1_13 [_51_ _52_] _58_ d_lut_NOR2X1
AINVX1_28 [_58_] _59_ d_lut_INVX1
AAND2X2_8 [i_add2_12_ i_add1_12_] _60_ d_lut_AND2X2
AINVX1_29 [_60_] _61_ d_lut_INVX1
ANAND3X1_10 [_59_ _61_ _57_] _62_ d_lut_NAND3X1
AOAI21X1_9 [i_add2_12_ i_add1_12_ _62_] _63_ d_lut_OAI21X1
AINVX1_30 [_63_] w_C_13_ d_lut_INVX1
AINVX1_31 [i_add2_13_] _64_ d_lut_INVX1
AINVX1_32 [i_add1_13_] _65_ d_lut_INVX1
ANOR2X1_14 [i_add2_12_ i_add1_12_] _66_ d_lut_NOR2X1
AINVX1_33 [_66_] _67_ d_lut_INVX1
ANOR2X1_15 [i_add2_13_ i_add1_13_] _68_ d_lut_NOR2X1
AINVX1_34 [_68_] _69_ d_lut_INVX1
ANAND3X1_11 [_67_ _69_ _62_] _70_ d_lut_NAND3X1
AOAI21X1_10 [_64_ _65_ _70_] w_C_14_ d_lut_OAI21X1
ANOR2X1_16 [_64_ _65_] _71_ d_lut_NOR2X1
AINVX1_35 [_71_] _72_ d_lut_INVX1
AAND2X2_9 [i_add2_14_ i_add1_14_] _73_ d_lut_AND2X2
AINVX1_36 [_73_] _74_ d_lut_INVX1
ANAND3X1_12 [_72_ _74_ _70_] _75_ d_lut_NAND3X1
AOAI21X1_11 [i_add2_14_ i_add1_14_ _75_] _76_ d_lut_OAI21X1
AINVX1_37 [_76_] w_C_15_ d_lut_INVX1
AINVX1_38 [i_add2_15_] _77_ d_lut_INVX1
AINVX1_39 [i_add1_15_] _78_ d_lut_INVX1
ANOR2X1_17 [i_add2_14_ i_add1_14_] _79_ d_lut_NOR2X1
AINVX1_40 [_79_] _80_ d_lut_INVX1
ANOR2X1_18 [i_add2_15_ i_add1_15_] _81_ d_lut_NOR2X1
AINVX1_41 [_81_] _82_ d_lut_INVX1
ANAND3X1_13 [_80_ _82_ _75_] _83_ d_lut_NAND3X1
AOAI21X1_12 [_77_ _78_ _83_] w_C_16_ d_lut_OAI21X1
ANOR2X1_19 [_77_ _78_] _84_ d_lut_NOR2X1
AINVX1_42 [_84_] _85_ d_lut_INVX1
AAND2X2_10 [i_add2_16_ i_add1_16_] _86_ d_lut_AND2X2
AINVX1_43 [_86_] _87_ d_lut_INVX1
ANAND3X1_14 [_85_ _87_ _83_] _88_ d_lut_NAND3X1
AOAI21X1_13 [i_add2_16_ i_add1_16_ _88_] _89_ d_lut_OAI21X1
AINVX1_44 [_89_] w_C_17_ d_lut_INVX1
AINVX1_45 [i_add2_17_] _90_ d_lut_INVX1
AINVX1_46 [i_add1_17_] _91_ d_lut_INVX1
ANOR2X1_20 [i_add2_16_ i_add1_16_] _92_ d_lut_NOR2X1
AINVX1_47 [_92_] _93_ d_lut_INVX1
ANOR2X1_21 [i_add2_17_ i_add1_17_] _94_ d_lut_NOR2X1
AINVX1_48 [_94_] _95_ d_lut_INVX1
ANAND3X1_15 [_93_ _95_ _88_] _96_ d_lut_NAND3X1
AOAI21X1_14 [_90_ _91_ _96_] w_C_18_ d_lut_OAI21X1
ANOR2X1_22 [_90_ _91_] _97_ d_lut_NOR2X1
AINVX1_49 [_97_] _98_ d_lut_INVX1
AAND2X2_11 [i_add2_18_ i_add1_18_] _99_ d_lut_AND2X2
AINVX1_50 [_99_] _100_ d_lut_INVX1
ANAND3X1_16 [_98_ _100_ _96_] _101_ d_lut_NAND3X1
AOAI21X1_15 [i_add2_18_ i_add1_18_ _101_] _102_ d_lut_OAI21X1
AINVX1_51 [_102_] w_C_19_ d_lut_INVX1
AINVX1_52 [i_add2_19_] _103_ d_lut_INVX1
AINVX1_53 [i_add1_19_] _104_ d_lut_INVX1
ANOR2X1_23 [i_add2_18_ i_add1_18_] _105_ d_lut_NOR2X1
AINVX1_54 [_105_] _106_ d_lut_INVX1
ANOR2X1_24 [i_add2_19_ i_add1_19_] _107_ d_lut_NOR2X1
AINVX1_55 [_107_] _108_ d_lut_INVX1
ANAND3X1_17 [_106_ _108_ _101_] _109_ d_lut_NAND3X1
AOAI21X1_16 [_103_ _104_ _109_] w_C_20_ d_lut_OAI21X1
ANOR2X1_25 [_103_ _104_] _110_ d_lut_NOR2X1
AINVX1_56 [_110_] _111_ d_lut_INVX1
AAND2X2_12 [i_add2_20_ i_add1_20_] _112_ d_lut_AND2X2
AINVX1_57 [_112_] _113_ d_lut_INVX1
ANAND3X1_18 [_111_ _113_ _109_] _114_ d_lut_NAND3X1
AOAI21X1_17 [i_add2_20_ i_add1_20_ _114_] _115_ d_lut_OAI21X1
AINVX1_58 [_115_] w_C_21_ d_lut_INVX1
AINVX1_59 [i_add2_21_] _116_ d_lut_INVX1
AINVX1_60 [i_add1_21_] _117_ d_lut_INVX1
ANOR2X1_26 [i_add2_20_ i_add1_20_] _118_ d_lut_NOR2X1
AINVX1_61 [_118_] _119_ d_lut_INVX1
ANOR2X1_27 [i_add2_21_ i_add1_21_] _120_ d_lut_NOR2X1
AINVX1_62 [_120_] _121_ d_lut_INVX1
ANAND3X1_19 [_119_ _121_ _114_] _122_ d_lut_NAND3X1
AOAI21X1_18 [_116_ _117_ _122_] w_C_22_ d_lut_OAI21X1
ANOR2X1_28 [_116_ _117_] _123_ d_lut_NOR2X1
AINVX1_63 [_123_] _124_ d_lut_INVX1
AAND2X2_13 [i_add2_22_ i_add1_22_] _125_ d_lut_AND2X2
AINVX1_64 [_125_] _126_ d_lut_INVX1
ANAND3X1_20 [_124_ _126_ _122_] _127_ d_lut_NAND3X1
AOAI21X1_19 [i_add2_22_ i_add1_22_ _127_] _128_ d_lut_OAI21X1
AINVX1_65 [_128_] w_C_23_ d_lut_INVX1
AINVX1_66 [i_add2_23_] _129_ d_lut_INVX1
AINVX1_67 [i_add1_23_] _130_ d_lut_INVX1
ANOR2X1_29 [i_add2_22_ i_add1_22_] _131_ d_lut_NOR2X1
AINVX1_68 [_131_] _132_ d_lut_INVX1
ANOR2X1_30 [i_add2_23_ i_add1_23_] _133_ d_lut_NOR2X1
AINVX1_69 [_133_] _134_ d_lut_INVX1
ANAND3X1_21 [_132_ _134_ _127_] _135_ d_lut_NAND3X1
AOAI21X1_20 [_129_ _130_ _135_] w_C_24_ d_lut_OAI21X1
ANOR2X1_31 [_129_ _130_] _136_ d_lut_NOR2X1
AINVX1_70 [_136_] _137_ d_lut_INVX1
AAND2X2_14 [i_add2_24_ i_add1_24_] _138_ d_lut_AND2X2
AINVX1_71 [_138_] _139_ d_lut_INVX1
ANAND3X1_22 [_137_ _139_ _135_] _140_ d_lut_NAND3X1
AOAI21X1_21 [i_add2_24_ i_add1_24_ _140_] _141_ d_lut_OAI21X1
AINVX1_72 [_141_] w_C_25_ d_lut_INVX1
AINVX1_73 [i_add2_25_] _142_ d_lut_INVX1
AINVX1_74 [i_add1_25_] _143_ d_lut_INVX1
ANOR2X1_32 [i_add2_24_ i_add1_24_] _144_ d_lut_NOR2X1
AINVX1_75 [_144_] _145_ d_lut_INVX1
ANOR2X1_33 [i_add2_25_ i_add1_25_] _146_ d_lut_NOR2X1
AINVX1_76 [_146_] _147_ d_lut_INVX1
ANAND3X1_23 [_145_ _147_ _140_] _148_ d_lut_NAND3X1
AOAI21X1_22 [_142_ _143_ _148_] w_C_26_ d_lut_OAI21X1
ANOR2X1_34 [i_add2_26_ i_add1_26_] _149_ d_lut_NOR2X1
AINVX1_77 [_149_] _150_ d_lut_INVX1
ANOR2X1_35 [_142_ _143_] _151_ d_lut_NOR2X1
AINVX1_78 [_151_] _152_ d_lut_INVX1
ANAND2X1_6 [i_add2_26_ i_add1_26_] _153_ d_lut_NAND2X1
ANAND3X1_24 [_152_ _153_ _148_] _154_ d_lut_NAND3X1
AAND2X2_15 [_154_ _150_] w_C_27_ d_lut_AND2X2
AINVX1_79 [i_add2_27_] _155_ d_lut_INVX1
AINVX1_80 [i_add1_27_] _156_ d_lut_INVX1
ANAND2X1_7 [_155_ _156_] _157_ d_lut_NAND2X1
ANAND3X1_25 [_150_ _157_ _154_] _158_ d_lut_NAND3X1
AOAI21X1_23 [_155_ _156_ _158_] w_C_28_ d_lut_OAI21X1
AINVX1_81 [i_add2_28_] _159_ d_lut_INVX1
AINVX1_82 [i_add1_28_] _160_ d_lut_INVX1
ANAND2X1_8 [_159_ _160_] _161_ d_lut_NAND2X1
ANAND2X1_9 [i_add2_27_ i_add1_27_] _162_ d_lut_NAND2X1
ANAND2X1_10 [i_add2_28_ i_add1_28_] _163_ d_lut_NAND2X1
ANAND3X1_26 [_162_ _163_ _158_] _164_ d_lut_NAND3X1
AAND2X2_16 [_164_ _161_] w_C_29_ d_lut_AND2X2
AINVX1_83 [i_add2_29_] _165_ d_lut_INVX1
AINVX1_84 [i_add1_29_] _166_ d_lut_INVX1
ANAND2X1_11 [_165_ _166_] _167_ d_lut_NAND2X1
ANAND3X1_27 [_161_ _167_ _164_] _168_ d_lut_NAND3X1
AOAI21X1_24 [_165_ _166_ _168_] w_C_30_ d_lut_OAI21X1
ANOR2X1_36 [_165_ _166_] _169_ d_lut_NOR2X1
AINVX1_85 [_169_] _170_ d_lut_INVX1
AAND2X2_17 [i_add2_30_ i_add1_30_] _171_ d_lut_AND2X2
AINVX1_86 [_171_] _172_ d_lut_INVX1
ANAND3X1_28 [_170_ _172_ _168_] _173_ d_lut_NAND3X1
AOAI21X1_25 [i_add2_30_ i_add1_30_ _173_] _174_ d_lut_OAI21X1
AINVX1_87 [_174_] w_C_31_ d_lut_INVX1
ANAND2X1_12 [i_add2_31_ i_add1_31_] _175_ d_lut_NAND2X1
ANOR2X1_37 [i_add2_31_ i_add1_31_] _176_ d_lut_NOR2X1
AOAI21X1_26 [_176_ _174_ _175_] w_C_32_ d_lut_OAI21X1
AOR2X2_2 [i_add2_32_ i_add1_32_] _177_ d_lut_OR2X2
ANOR2X1_38 [i_add2_30_ i_add1_30_] _178_ d_lut_NOR2X1
AINVX1_88 [_178_] _179_ d_lut_INVX1
AINVX1_89 [_176_] _180_ d_lut_INVX1
ANAND3X1_29 [_179_ _180_ _173_] _181_ d_lut_NAND3X1
ANAND2X1_13 [i_add2_32_ i_add1_32_] _182_ d_lut_NAND2X1
ANAND3X1_30 [_175_ _182_ _181_] _183_ d_lut_NAND3X1
AAND2X2_18 [_183_ _177_] w_C_33_ d_lut_AND2X2
ANAND2X1_14 [i_add2_33_ i_add1_33_] _184_ d_lut_NAND2X1
AOR2X2_3 [i_add2_33_ i_add1_33_] _185_ d_lut_OR2X2
ANAND3X1_31 [_177_ _185_ _183_] _186_ d_lut_NAND3X1
ANAND2X1_15 [_184_ _186_] w_C_34_ d_lut_NAND2X1
ABUFX2_1 [_187__0_] o_result_0_ d_lut_BUFX2
ABUFX2_2 [_187__1_] o_result_1_ d_lut_BUFX2
ABUFX2_3 [_187__2_] o_result_2_ d_lut_BUFX2
ABUFX2_4 [_187__3_] o_result_3_ d_lut_BUFX2
ABUFX2_5 [_187__4_] o_result_4_ d_lut_BUFX2
ABUFX2_6 [_187__5_] o_result_5_ d_lut_BUFX2
ABUFX2_7 [_187__6_] o_result_6_ d_lut_BUFX2
ABUFX2_8 [_187__7_] o_result_7_ d_lut_BUFX2
ABUFX2_9 [_187__8_] o_result_8_ d_lut_BUFX2
ABUFX2_10 [_187__9_] o_result_9_ d_lut_BUFX2
ABUFX2_11 [_187__10_] o_result_10_ d_lut_BUFX2
ABUFX2_12 [_187__11_] o_result_11_ d_lut_BUFX2
ABUFX2_13 [_187__12_] o_result_12_ d_lut_BUFX2
ABUFX2_14 [_187__13_] o_result_13_ d_lut_BUFX2
ABUFX2_15 [_187__14_] o_result_14_ d_lut_BUFX2
ABUFX2_16 [_187__15_] o_result_15_ d_lut_BUFX2
ABUFX2_17 [_187__16_] o_result_16_ d_lut_BUFX2
ABUFX2_18 [_187__17_] o_result_17_ d_lut_BUFX2
ABUFX2_19 [_187__18_] o_result_18_ d_lut_BUFX2
ABUFX2_20 [_187__19_] o_result_19_ d_lut_BUFX2
ABUFX2_21 [_187__20_] o_result_20_ d_lut_BUFX2
ABUFX2_22 [_187__21_] o_result_21_ d_lut_BUFX2
ABUFX2_23 [_187__22_] o_result_22_ d_lut_BUFX2
ABUFX2_24 [_187__23_] o_result_23_ d_lut_BUFX2
ABUFX2_25 [_187__24_] o_result_24_ d_lut_BUFX2
ABUFX2_26 [_187__25_] o_result_25_ d_lut_BUFX2
ABUFX2_27 [_187__26_] o_result_26_ d_lut_BUFX2
ABUFX2_28 [_187__27_] o_result_27_ d_lut_BUFX2
ABUFX2_29 [_187__28_] o_result_28_ d_lut_BUFX2
ABUFX2_30 [_187__29_] o_result_29_ d_lut_BUFX2
ABUFX2_31 [_187__30_] o_result_30_ d_lut_BUFX2
ABUFX2_32 [_187__31_] o_result_31_ d_lut_BUFX2
ABUFX2_33 [_187__32_] o_result_32_ d_lut_BUFX2
ABUFX2_34 [_187__33_] o_result_33_ d_lut_BUFX2
ABUFX2_35 [w_C_34_] o_result_34_ d_lut_BUFX2
AINVX1_90 [w_C_4_] _191_ d_lut_INVX1
AOR2X2_4 [i_add2_4_ i_add1_4_] _192_ d_lut_OR2X2
ANAND2X1_16 [i_add2_4_ i_add1_4_] _193_ d_lut_NAND2X1
ANAND3X1_32 [_191_ _193_ _192_] _194_ d_lut_NAND3X1
ANOR2X1_39 [i_add2_4_ i_add1_4_] _188_ d_lut_NOR2X1
AAND2X2_19 [i_add2_4_ i_add1_4_] _189_ d_lut_AND2X2
AOAI21X1_27 [_188_ _189_ w_C_4_] _190_ d_lut_OAI21X1
ANAND2X1_17 [_190_ _194_] _187__4_ d_lut_NAND2X1
AINVX1_91 [w_C_5_] _198_ d_lut_INVX1
AOR2X2_5 [i_add2_5_ i_add1_5_] _199_ d_lut_OR2X2
ANAND2X1_18 [i_add2_5_ i_add1_5_] _200_ d_lut_NAND2X1
ANAND3X1_33 [_198_ _200_ _199_] _201_ d_lut_NAND3X1
ANOR2X1_40 [i_add2_5_ i_add1_5_] _195_ d_lut_NOR2X1
AAND2X2_20 [i_add2_5_ i_add1_5_] _196_ d_lut_AND2X2
AOAI21X1_28 [_195_ _196_ w_C_5_] _197_ d_lut_OAI21X1
ANAND2X1_19 [_197_ _201_] _187__5_ d_lut_NAND2X1
AINVX1_92 [w_C_6_] _205_ d_lut_INVX1
AOR2X2_6 [i_add2_6_ i_add1_6_] _206_ d_lut_OR2X2
ANAND2X1_20 [i_add2_6_ i_add1_6_] _207_ d_lut_NAND2X1
ANAND3X1_34 [_205_ _207_ _206_] _208_ d_lut_NAND3X1
ANOR2X1_41 [i_add2_6_ i_add1_6_] _202_ d_lut_NOR2X1
AAND2X2_21 [i_add2_6_ i_add1_6_] _203_ d_lut_AND2X2
AOAI21X1_29 [_202_ _203_ w_C_6_] _204_ d_lut_OAI21X1
ANAND2X1_21 [_204_ _208_] _187__6_ d_lut_NAND2X1
AINVX1_93 [w_C_7_] _212_ d_lut_INVX1
AOR2X2_7 [i_add2_7_ i_add1_7_] _213_ d_lut_OR2X2
ANAND2X1_22 [i_add2_7_ i_add1_7_] _214_ d_lut_NAND2X1
ANAND3X1_35 [_212_ _214_ _213_] _215_ d_lut_NAND3X1
ANOR2X1_42 [i_add2_7_ i_add1_7_] _209_ d_lut_NOR2X1
AAND2X2_22 [i_add2_7_ i_add1_7_] _210_ d_lut_AND2X2
AOAI21X1_30 [_209_ _210_ w_C_7_] _211_ d_lut_OAI21X1
ANAND2X1_23 [_211_ _215_] _187__7_ d_lut_NAND2X1
AINVX1_94 [w_C_8_] _219_ d_lut_INVX1
AOR2X2_8 [i_add2_8_ i_add1_8_] _220_ d_lut_OR2X2
ANAND2X1_24 [i_add2_8_ i_add1_8_] _221_ d_lut_NAND2X1
ANAND3X1_36 [_219_ _221_ _220_] _222_ d_lut_NAND3X1
ANOR2X1_43 [i_add2_8_ i_add1_8_] _216_ d_lut_NOR2X1
AAND2X2_23 [i_add2_8_ i_add1_8_] _217_ d_lut_AND2X2
AOAI21X1_31 [_216_ _217_ w_C_8_] _218_ d_lut_OAI21X1
ANAND2X1_25 [_218_ _222_] _187__8_ d_lut_NAND2X1
AINVX1_95 [w_C_9_] _226_ d_lut_INVX1
AOR2X2_9 [i_add2_9_ i_add1_9_] _227_ d_lut_OR2X2
ANAND2X1_26 [i_add2_9_ i_add1_9_] _228_ d_lut_NAND2X1
ANAND3X1_37 [_226_ _228_ _227_] _229_ d_lut_NAND3X1
ANOR2X1_44 [i_add2_9_ i_add1_9_] _223_ d_lut_NOR2X1
AAND2X2_24 [i_add2_9_ i_add1_9_] _224_ d_lut_AND2X2
AOAI21X1_32 [_223_ _224_ w_C_9_] _225_ d_lut_OAI21X1
ANAND2X1_27 [_225_ _229_] _187__9_ d_lut_NAND2X1
AINVX1_96 [w_C_10_] _233_ d_lut_INVX1
AOR2X2_10 [i_add2_10_ i_add1_10_] _234_ d_lut_OR2X2
ANAND2X1_28 [i_add2_10_ i_add1_10_] _235_ d_lut_NAND2X1
ANAND3X1_38 [_233_ _235_ _234_] _236_ d_lut_NAND3X1
ANOR2X1_45 [i_add2_10_ i_add1_10_] _230_ d_lut_NOR2X1
AAND2X2_25 [i_add2_10_ i_add1_10_] _231_ d_lut_AND2X2
AOAI21X1_33 [_230_ _231_ w_C_10_] _232_ d_lut_OAI21X1
ANAND2X1_29 [_232_ _236_] _187__10_ d_lut_NAND2X1
AINVX1_97 [w_C_11_] _240_ d_lut_INVX1
AOR2X2_11 [i_add2_11_ i_add1_11_] _241_ d_lut_OR2X2
ANAND2X1_30 [i_add2_11_ i_add1_11_] _242_ d_lut_NAND2X1
ANAND3X1_39 [_240_ _242_ _241_] _243_ d_lut_NAND3X1
ANOR2X1_46 [i_add2_11_ i_add1_11_] _237_ d_lut_NOR2X1
AAND2X2_26 [i_add2_11_ i_add1_11_] _238_ d_lut_AND2X2
AOAI21X1_34 [_237_ _238_ w_C_11_] _239_ d_lut_OAI21X1
ANAND2X1_31 [_239_ _243_] _187__11_ d_lut_NAND2X1
AINVX1_98 [w_C_12_] _247_ d_lut_INVX1
AOR2X2_12 [i_add2_12_ i_add1_12_] _248_ d_lut_OR2X2
ANAND2X1_32 [i_add2_12_ i_add1_12_] _249_ d_lut_NAND2X1
ANAND3X1_40 [_247_ _249_ _248_] _250_ d_lut_NAND3X1
ANOR2X1_47 [i_add2_12_ i_add1_12_] _244_ d_lut_NOR2X1
AAND2X2_27 [i_add2_12_ i_add1_12_] _245_ d_lut_AND2X2
AOAI21X1_35 [_244_ _245_ w_C_12_] _246_ d_lut_OAI21X1
ANAND2X1_33 [_246_ _250_] _187__12_ d_lut_NAND2X1
AINVX1_99 [w_C_13_] _254_ d_lut_INVX1
AOR2X2_13 [i_add2_13_ i_add1_13_] _255_ d_lut_OR2X2
ANAND2X1_34 [i_add2_13_ i_add1_13_] _256_ d_lut_NAND2X1
ANAND3X1_41 [_254_ _256_ _255_] _257_ d_lut_NAND3X1
ANOR2X1_48 [i_add2_13_ i_add1_13_] _251_ d_lut_NOR2X1
AAND2X2_28 [i_add2_13_ i_add1_13_] _252_ d_lut_AND2X2
AOAI21X1_36 [_251_ _252_ w_C_13_] _253_ d_lut_OAI21X1
ANAND2X1_35 [_253_ _257_] _187__13_ d_lut_NAND2X1
AINVX1_100 [w_C_14_] _261_ d_lut_INVX1
AOR2X2_14 [i_add2_14_ i_add1_14_] _262_ d_lut_OR2X2
ANAND2X1_36 [i_add2_14_ i_add1_14_] _263_ d_lut_NAND2X1
ANAND3X1_42 [_261_ _263_ _262_] _264_ d_lut_NAND3X1
ANOR2X1_49 [i_add2_14_ i_add1_14_] _258_ d_lut_NOR2X1
AAND2X2_29 [i_add2_14_ i_add1_14_] _259_ d_lut_AND2X2
AOAI21X1_37 [_258_ _259_ w_C_14_] _260_ d_lut_OAI21X1
ANAND2X1_37 [_260_ _264_] _187__14_ d_lut_NAND2X1
AINVX1_101 [w_C_15_] _268_ d_lut_INVX1
AOR2X2_15 [i_add2_15_ i_add1_15_] _269_ d_lut_OR2X2
ANAND2X1_38 [i_add2_15_ i_add1_15_] _270_ d_lut_NAND2X1
ANAND3X1_43 [_268_ _270_ _269_] _271_ d_lut_NAND3X1
ANOR2X1_50 [i_add2_15_ i_add1_15_] _265_ d_lut_NOR2X1
AAND2X2_30 [i_add2_15_ i_add1_15_] _266_ d_lut_AND2X2
AOAI21X1_38 [_265_ _266_ w_C_15_] _267_ d_lut_OAI21X1
ANAND2X1_39 [_267_ _271_] _187__15_ d_lut_NAND2X1
AINVX1_102 [w_C_16_] _275_ d_lut_INVX1
AOR2X2_16 [i_add2_16_ i_add1_16_] _276_ d_lut_OR2X2
ANAND2X1_40 [i_add2_16_ i_add1_16_] _277_ d_lut_NAND2X1
ANAND3X1_44 [_275_ _277_ _276_] _278_ d_lut_NAND3X1
ANOR2X1_51 [i_add2_16_ i_add1_16_] _272_ d_lut_NOR2X1
AAND2X2_31 [i_add2_16_ i_add1_16_] _273_ d_lut_AND2X2
AOAI21X1_39 [_272_ _273_ w_C_16_] _274_ d_lut_OAI21X1
ANAND2X1_41 [_274_ _278_] _187__16_ d_lut_NAND2X1
AINVX1_103 [w_C_17_] _282_ d_lut_INVX1
AOR2X2_17 [i_add2_17_ i_add1_17_] _283_ d_lut_OR2X2
ANAND2X1_42 [i_add2_17_ i_add1_17_] _284_ d_lut_NAND2X1
ANAND3X1_45 [_282_ _284_ _283_] _285_ d_lut_NAND3X1
ANOR2X1_52 [i_add2_17_ i_add1_17_] _279_ d_lut_NOR2X1
AAND2X2_32 [i_add2_17_ i_add1_17_] _280_ d_lut_AND2X2
AOAI21X1_40 [_279_ _280_ w_C_17_] _281_ d_lut_OAI21X1
ANAND2X1_43 [_281_ _285_] _187__17_ d_lut_NAND2X1
AINVX1_104 [w_C_18_] _289_ d_lut_INVX1
AOR2X2_18 [i_add2_18_ i_add1_18_] _290_ d_lut_OR2X2
ANAND2X1_44 [i_add2_18_ i_add1_18_] _291_ d_lut_NAND2X1
ANAND3X1_46 [_289_ _291_ _290_] _292_ d_lut_NAND3X1
ANOR2X1_53 [i_add2_18_ i_add1_18_] _286_ d_lut_NOR2X1
AAND2X2_33 [i_add2_18_ i_add1_18_] _287_ d_lut_AND2X2
AOAI21X1_41 [_286_ _287_ w_C_18_] _288_ d_lut_OAI21X1
ANAND2X1_45 [_288_ _292_] _187__18_ d_lut_NAND2X1
AINVX1_105 [w_C_19_] _296_ d_lut_INVX1
AOR2X2_19 [i_add2_19_ i_add1_19_] _297_ d_lut_OR2X2
ANAND2X1_46 [i_add2_19_ i_add1_19_] _298_ d_lut_NAND2X1
ANAND3X1_47 [_296_ _298_ _297_] _299_ d_lut_NAND3X1
ANOR2X1_54 [i_add2_19_ i_add1_19_] _293_ d_lut_NOR2X1
AAND2X2_34 [i_add2_19_ i_add1_19_] _294_ d_lut_AND2X2
AOAI21X1_42 [_293_ _294_ w_C_19_] _295_ d_lut_OAI21X1
ANAND2X1_47 [_295_ _299_] _187__19_ d_lut_NAND2X1
AINVX1_106 [w_C_20_] _303_ d_lut_INVX1
AOR2X2_20 [i_add2_20_ i_add1_20_] _304_ d_lut_OR2X2
ANAND2X1_48 [i_add2_20_ i_add1_20_] _305_ d_lut_NAND2X1
ANAND3X1_48 [_303_ _305_ _304_] _306_ d_lut_NAND3X1
ANOR2X1_55 [i_add2_20_ i_add1_20_] _300_ d_lut_NOR2X1
AAND2X2_35 [i_add2_20_ i_add1_20_] _301_ d_lut_AND2X2
AOAI21X1_43 [_300_ _301_ w_C_20_] _302_ d_lut_OAI21X1
ANAND2X1_49 [_302_ _306_] _187__20_ d_lut_NAND2X1
AINVX1_107 [w_C_21_] _310_ d_lut_INVX1
AOR2X2_21 [i_add2_21_ i_add1_21_] _311_ d_lut_OR2X2
ANAND2X1_50 [i_add2_21_ i_add1_21_] _312_ d_lut_NAND2X1
ANAND3X1_49 [_310_ _312_ _311_] _313_ d_lut_NAND3X1
ANOR2X1_56 [i_add2_21_ i_add1_21_] _307_ d_lut_NOR2X1
AAND2X2_36 [i_add2_21_ i_add1_21_] _308_ d_lut_AND2X2
AOAI21X1_44 [_307_ _308_ w_C_21_] _309_ d_lut_OAI21X1
ANAND2X1_51 [_309_ _313_] _187__21_ d_lut_NAND2X1
AINVX1_108 [w_C_22_] _317_ d_lut_INVX1
AOR2X2_22 [i_add2_22_ i_add1_22_] _318_ d_lut_OR2X2
ANAND2X1_52 [i_add2_22_ i_add1_22_] _319_ d_lut_NAND2X1
ANAND3X1_50 [_317_ _319_ _318_] _320_ d_lut_NAND3X1
ANOR2X1_57 [i_add2_22_ i_add1_22_] _314_ d_lut_NOR2X1
AAND2X2_37 [i_add2_22_ i_add1_22_] _315_ d_lut_AND2X2
AOAI21X1_45 [_314_ _315_ w_C_22_] _316_ d_lut_OAI21X1
ANAND2X1_53 [_316_ _320_] _187__22_ d_lut_NAND2X1
AINVX1_109 [w_C_23_] _324_ d_lut_INVX1
AOR2X2_23 [i_add2_23_ i_add1_23_] _325_ d_lut_OR2X2
ANAND2X1_54 [i_add2_23_ i_add1_23_] _326_ d_lut_NAND2X1
ANAND3X1_51 [_324_ _326_ _325_] _327_ d_lut_NAND3X1
ANOR2X1_58 [i_add2_23_ i_add1_23_] _321_ d_lut_NOR2X1
AAND2X2_38 [i_add2_23_ i_add1_23_] _322_ d_lut_AND2X2
AOAI21X1_46 [_321_ _322_ w_C_23_] _323_ d_lut_OAI21X1
ANAND2X1_55 [_323_ _327_] _187__23_ d_lut_NAND2X1
AINVX1_110 [w_C_24_] _331_ d_lut_INVX1
AOR2X2_24 [i_add2_24_ i_add1_24_] _332_ d_lut_OR2X2
ANAND2X1_56 [i_add2_24_ i_add1_24_] _333_ d_lut_NAND2X1
ANAND3X1_52 [_331_ _333_ _332_] _334_ d_lut_NAND3X1
ANOR2X1_59 [i_add2_24_ i_add1_24_] _328_ d_lut_NOR2X1
AAND2X2_39 [i_add2_24_ i_add1_24_] _329_ d_lut_AND2X2
AOAI21X1_47 [_328_ _329_ w_C_24_] _330_ d_lut_OAI21X1
ANAND2X1_57 [_330_ _334_] _187__24_ d_lut_NAND2X1
AINVX1_111 [w_C_25_] _338_ d_lut_INVX1
AOR2X2_25 [i_add2_25_ i_add1_25_] _339_ d_lut_OR2X2
ANAND2X1_58 [i_add2_25_ i_add1_25_] _340_ d_lut_NAND2X1
ANAND3X1_53 [_338_ _340_ _339_] _341_ d_lut_NAND3X1
ANOR2X1_60 [i_add2_25_ i_add1_25_] _335_ d_lut_NOR2X1
AAND2X2_40 [i_add2_25_ i_add1_25_] _336_ d_lut_AND2X2
AOAI21X1_48 [_335_ _336_ w_C_25_] _337_ d_lut_OAI21X1
ANAND2X1_59 [_337_ _341_] _187__25_ d_lut_NAND2X1
AINVX1_112 [w_C_26_] _345_ d_lut_INVX1
AOR2X2_26 [i_add2_26_ i_add1_26_] _346_ d_lut_OR2X2
ANAND2X1_60 [i_add2_26_ i_add1_26_] _347_ d_lut_NAND2X1
ANAND3X1_54 [_345_ _347_ _346_] _348_ d_lut_NAND3X1
ANOR2X1_61 [i_add2_26_ i_add1_26_] _342_ d_lut_NOR2X1
AAND2X2_41 [i_add2_26_ i_add1_26_] _343_ d_lut_AND2X2
AOAI21X1_49 [_342_ _343_ w_C_26_] _344_ d_lut_OAI21X1
ANAND2X1_61 [_344_ _348_] _187__26_ d_lut_NAND2X1
AINVX1_113 [w_C_27_] _352_ d_lut_INVX1
AOR2X2_27 [i_add2_27_ i_add1_27_] _353_ d_lut_OR2X2
ANAND2X1_62 [i_add2_27_ i_add1_27_] _354_ d_lut_NAND2X1
ANAND3X1_55 [_352_ _354_ _353_] _355_ d_lut_NAND3X1
ANOR2X1_62 [i_add2_27_ i_add1_27_] _349_ d_lut_NOR2X1
AAND2X2_42 [i_add2_27_ i_add1_27_] _350_ d_lut_AND2X2
AOAI21X1_50 [_349_ _350_ w_C_27_] _351_ d_lut_OAI21X1
ANAND2X1_63 [_351_ _355_] _187__27_ d_lut_NAND2X1
AINVX1_114 [w_C_28_] _359_ d_lut_INVX1
AOR2X2_28 [i_add2_28_ i_add1_28_] _360_ d_lut_OR2X2
ANAND2X1_64 [i_add2_28_ i_add1_28_] _361_ d_lut_NAND2X1
ANAND3X1_56 [_359_ _361_ _360_] _362_ d_lut_NAND3X1
ANOR2X1_63 [i_add2_28_ i_add1_28_] _356_ d_lut_NOR2X1
AAND2X2_43 [i_add2_28_ i_add1_28_] _357_ d_lut_AND2X2
AOAI21X1_51 [_356_ _357_ w_C_28_] _358_ d_lut_OAI21X1
ANAND2X1_65 [_358_ _362_] _187__28_ d_lut_NAND2X1
AINVX1_115 [w_C_29_] _366_ d_lut_INVX1
AOR2X2_29 [i_add2_29_ i_add1_29_] _367_ d_lut_OR2X2
ANAND2X1_66 [i_add2_29_ i_add1_29_] _368_ d_lut_NAND2X1
ANAND3X1_57 [_366_ _368_ _367_] _369_ d_lut_NAND3X1
ANOR2X1_64 [i_add2_29_ i_add1_29_] _363_ d_lut_NOR2X1
AAND2X2_44 [i_add2_29_ i_add1_29_] _364_ d_lut_AND2X2
AOAI21X1_52 [_363_ _364_ w_C_29_] _365_ d_lut_OAI21X1
ANAND2X1_67 [_365_ _369_] _187__29_ d_lut_NAND2X1
AINVX1_116 [w_C_30_] _373_ d_lut_INVX1
AOR2X2_30 [i_add2_30_ i_add1_30_] _374_ d_lut_OR2X2
ANAND2X1_68 [i_add2_30_ i_add1_30_] _375_ d_lut_NAND2X1
ANAND3X1_58 [_373_ _375_ _374_] _376_ d_lut_NAND3X1
ANOR2X1_65 [i_add2_30_ i_add1_30_] _370_ d_lut_NOR2X1
AAND2X2_45 [i_add2_30_ i_add1_30_] _371_ d_lut_AND2X2
AOAI21X1_53 [_370_ _371_ w_C_30_] _372_ d_lut_OAI21X1
ANAND2X1_69 [_372_ _376_] _187__30_ d_lut_NAND2X1
AINVX1_117 [w_C_31_] _380_ d_lut_INVX1
AOR2X2_31 [i_add2_31_ i_add1_31_] _381_ d_lut_OR2X2
ANAND2X1_70 [i_add2_31_ i_add1_31_] _382_ d_lut_NAND2X1
ANAND3X1_59 [_380_ _382_ _381_] _383_ d_lut_NAND3X1
ANOR2X1_66 [i_add2_31_ i_add1_31_] _377_ d_lut_NOR2X1
AAND2X2_46 [i_add2_31_ i_add1_31_] _378_ d_lut_AND2X2
AOAI21X1_54 [_377_ _378_ w_C_31_] _379_ d_lut_OAI21X1
ANAND2X1_71 [_379_ _383_] _187__31_ d_lut_NAND2X1
AINVX1_118 [w_C_32_] _387_ d_lut_INVX1
AOR2X2_32 [i_add2_32_ i_add1_32_] _388_ d_lut_OR2X2
ANAND2X1_72 [i_add2_32_ i_add1_32_] _389_ d_lut_NAND2X1
ANAND3X1_60 [_387_ _389_ _388_] _390_ d_lut_NAND3X1
ANOR2X1_67 [i_add2_32_ i_add1_32_] _384_ d_lut_NOR2X1
AAND2X2_47 [i_add2_32_ i_add1_32_] _385_ d_lut_AND2X2
AOAI21X1_55 [_384_ _385_ w_C_32_] _386_ d_lut_OAI21X1
ANAND2X1_73 [_386_ _390_] _187__32_ d_lut_NAND2X1
AINVX1_119 [w_C_33_] _394_ d_lut_INVX1
AOR2X2_33 [i_add2_33_ i_add1_33_] _395_ d_lut_OR2X2
ANAND2X1_74 [i_add2_33_ i_add1_33_] _396_ d_lut_NAND2X1
ANAND3X1_61 [_394_ _396_ _395_] _397_ d_lut_NAND3X1
ANOR2X1_68 [i_add2_33_ i_add1_33_] _391_ d_lut_NOR2X1
AAND2X2_48 [i_add2_33_ i_add1_33_] _392_ d_lut_AND2X2
AOAI21X1_56 [_391_ _392_ w_C_33_] _393_ d_lut_OAI21X1
ANAND2X1_75 [_393_ _397_] _187__33_ d_lut_NAND2X1
AINVX1_120 [gnd] _401_ d_lut_INVX1
AOR2X2_34 [i_add2_0_ i_add1_0_] _402_ d_lut_OR2X2
ANAND2X1_76 [i_add2_0_ i_add1_0_] _403_ d_lut_NAND2X1
ANAND3X1_62 [_401_ _403_ _402_] _404_ d_lut_NAND3X1
ANOR2X1_69 [i_add2_0_ i_add1_0_] _398_ d_lut_NOR2X1
AAND2X2_49 [i_add2_0_ i_add1_0_] _399_ d_lut_AND2X2
AOAI21X1_57 [_398_ _399_ gnd] _400_ d_lut_OAI21X1
ANAND2X1_77 [_400_ _404_] _187__0_ d_lut_NAND2X1
AINVX1_121 [w_C_1_] _408_ d_lut_INVX1
AOR2X2_35 [i_add2_1_ i_add1_1_] _409_ d_lut_OR2X2
ANAND2X1_78 [i_add2_1_ i_add1_1_] _410_ d_lut_NAND2X1
ANAND3X1_63 [_408_ _410_ _409_] _411_ d_lut_NAND3X1
ANOR2X1_70 [i_add2_1_ i_add1_1_] _405_ d_lut_NOR2X1
AAND2X2_50 [i_add2_1_ i_add1_1_] _406_ d_lut_AND2X2
AOAI21X1_58 [_405_ _406_ w_C_1_] _407_ d_lut_OAI21X1
ANAND2X1_79 [_407_ _411_] _187__1_ d_lut_NAND2X1
AINVX1_122 [w_C_2_] _415_ d_lut_INVX1
AOR2X2_36 [i_add2_2_ i_add1_2_] _416_ d_lut_OR2X2
ANAND2X1_80 [i_add2_2_ i_add1_2_] _417_ d_lut_NAND2X1
ANAND3X1_64 [_415_ _417_ _416_] _418_ d_lut_NAND3X1
ANOR2X1_71 [i_add2_2_ i_add1_2_] _412_ d_lut_NOR2X1
AAND2X2_51 [i_add2_2_ i_add1_2_] _413_ d_lut_AND2X2
AOAI21X1_59 [_412_ _413_ w_C_2_] _414_ d_lut_OAI21X1
ANAND2X1_81 [_414_ _418_] _187__2_ d_lut_NAND2X1
AINVX1_123 [w_C_3_] _422_ d_lut_INVX1
AOR2X2_37 [i_add2_3_ i_add1_3_] _423_ d_lut_OR2X2
ANAND2X1_82 [i_add2_3_ i_add1_3_] _424_ d_lut_NAND2X1
ANAND3X1_65 [_422_ _424_ _423_] _425_ d_lut_NAND3X1
ANOR2X1_72 [i_add2_3_ i_add1_3_] _419_ d_lut_NOR2X1
AAND2X2_52 [i_add2_3_ i_add1_3_] _420_ d_lut_AND2X2
AOAI21X1_60 [_419_ _420_ w_C_3_] _421_ d_lut_OAI21X1
ANAND2X1_83 [_421_ _425_] _187__3_ d_lut_NAND2X1
ABUFX2_36 [w_C_34_] _187__34_ d_lut_BUFX2
ABUFX2_37 [gnd] w_C_0_ d_lut_BUFX2

.model todig_3v3 adc_bridge(in_high=2.1999999999999997 in_low=1.0999999999999999 rise_delay=10n fall_delay=10n)
.model toana_3v3 dac_bridge(out_high=3.3 out_low=0)

.model ddflop d_dff(ic=0 rise_delay=1n fall_delay=1n)
.model dzero d_pulldown(load=1p)
.model done d_pullup(load=1p)

AA2D1 [a_vdd] [vdd] todig_3v3
AA2D2 [a_gnd] [gnd] todig_3v3
AA2D3 [a_i_add1_0_] [i_add1_0_] todig_3v3
AA2D4 [a_i_add1_1_] [i_add1_1_] todig_3v3
AA2D5 [a_i_add1_2_] [i_add1_2_] todig_3v3
AA2D6 [a_i_add1_3_] [i_add1_3_] todig_3v3
AA2D7 [a_i_add1_4_] [i_add1_4_] todig_3v3
AA2D8 [a_i_add1_5_] [i_add1_5_] todig_3v3
AA2D9 [a_i_add1_6_] [i_add1_6_] todig_3v3
AA2D10 [a_i_add1_7_] [i_add1_7_] todig_3v3
AA2D11 [a_i_add1_8_] [i_add1_8_] todig_3v3
AA2D12 [a_i_add1_9_] [i_add1_9_] todig_3v3
AA2D13 [a_i_add1_10_] [i_add1_10_] todig_3v3
AA2D14 [a_i_add1_11_] [i_add1_11_] todig_3v3
AA2D15 [a_i_add1_12_] [i_add1_12_] todig_3v3
AA2D16 [a_i_add1_13_] [i_add1_13_] todig_3v3
AA2D17 [a_i_add1_14_] [i_add1_14_] todig_3v3
AA2D18 [a_i_add1_15_] [i_add1_15_] todig_3v3
AA2D19 [a_i_add1_16_] [i_add1_16_] todig_3v3
AA2D20 [a_i_add1_17_] [i_add1_17_] todig_3v3
AA2D21 [a_i_add1_18_] [i_add1_18_] todig_3v3
AA2D22 [a_i_add1_19_] [i_add1_19_] todig_3v3
AA2D23 [a_i_add1_20_] [i_add1_20_] todig_3v3
AA2D24 [a_i_add1_21_] [i_add1_21_] todig_3v3
AA2D25 [a_i_add1_22_] [i_add1_22_] todig_3v3
AA2D26 [a_i_add1_23_] [i_add1_23_] todig_3v3
AA2D27 [a_i_add1_24_] [i_add1_24_] todig_3v3
AA2D28 [a_i_add1_25_] [i_add1_25_] todig_3v3
AA2D29 [a_i_add1_26_] [i_add1_26_] todig_3v3
AA2D30 [a_i_add1_27_] [i_add1_27_] todig_3v3
AA2D31 [a_i_add1_28_] [i_add1_28_] todig_3v3
AA2D32 [a_i_add1_29_] [i_add1_29_] todig_3v3
AA2D33 [a_i_add1_30_] [i_add1_30_] todig_3v3
AA2D34 [a_i_add1_31_] [i_add1_31_] todig_3v3
AA2D35 [a_i_add1_32_] [i_add1_32_] todig_3v3
AA2D36 [a_i_add1_33_] [i_add1_33_] todig_3v3
AA2D37 [a_i_add2_0_] [i_add2_0_] todig_3v3
AA2D38 [a_i_add2_1_] [i_add2_1_] todig_3v3
AA2D39 [a_i_add2_2_] [i_add2_2_] todig_3v3
AA2D40 [a_i_add2_3_] [i_add2_3_] todig_3v3
AA2D41 [a_i_add2_4_] [i_add2_4_] todig_3v3
AA2D42 [a_i_add2_5_] [i_add2_5_] todig_3v3
AA2D43 [a_i_add2_6_] [i_add2_6_] todig_3v3
AA2D44 [a_i_add2_7_] [i_add2_7_] todig_3v3
AA2D45 [a_i_add2_8_] [i_add2_8_] todig_3v3
AA2D46 [a_i_add2_9_] [i_add2_9_] todig_3v3
AA2D47 [a_i_add2_10_] [i_add2_10_] todig_3v3
AA2D48 [a_i_add2_11_] [i_add2_11_] todig_3v3
AA2D49 [a_i_add2_12_] [i_add2_12_] todig_3v3
AA2D50 [a_i_add2_13_] [i_add2_13_] todig_3v3
AA2D51 [a_i_add2_14_] [i_add2_14_] todig_3v3
AA2D52 [a_i_add2_15_] [i_add2_15_] todig_3v3
AA2D53 [a_i_add2_16_] [i_add2_16_] todig_3v3
AA2D54 [a_i_add2_17_] [i_add2_17_] todig_3v3
AA2D55 [a_i_add2_18_] [i_add2_18_] todig_3v3
AA2D56 [a_i_add2_19_] [i_add2_19_] todig_3v3
AA2D57 [a_i_add2_20_] [i_add2_20_] todig_3v3
AA2D58 [a_i_add2_21_] [i_add2_21_] todig_3v3
AA2D59 [a_i_add2_22_] [i_add2_22_] todig_3v3
AA2D60 [a_i_add2_23_] [i_add2_23_] todig_3v3