*SPICE netlist created from BLIF module csa_48bit by blif2BSpice
.include /usr/local/share/qflow/tech/osu035/osu035_stdcells.sp
.subckt csa_48bit vdd gnd i_add_term1[0] i_add_term1[1] i_add_term1[2] i_add_term1[3] i_add_term1[4] i_add_term1[5] i_add_term1[6] i_add_term1[7] i_add_term1[8] i_add_term1[9] i_add_term1[10] i_add_term1[11] i_add_term1[12] i_add_term1[13] i_add_term1[14] i_add_term1[15] i_add_term1[16] i_add_term1[17] i_add_term1[18] i_add_term1[19] i_add_term1[20] i_add_term1[21] i_add_term1[22] i_add_term1[23] i_add_term1[24] i_add_term1[25] i_add_term1[26] i_add_term1[27] i_add_term1[28] i_add_term1[29] i_add_term1[30] i_add_term1[31] i_add_term1[32] i_add_term1[33] i_add_term1[34] i_add_term1[35] i_add_term1[36] i_add_term1[37] i_add_term1[38] i_add_term1[39] i_add_term1[40] i_add_term1[41] i_add_term1[42] i_add_term1[43] i_add_term1[44] i_add_term1[45] i_add_term1[46] i_add_term1[47] i_add_term2[0] i_add_term2[1] i_add_term2[2] i_add_term2[3] i_add_term2[4] i_add_term2[5] i_add_term2[6] i_add_term2[7] i_add_term2[8] i_add_term2[9] i_add_term2[10] i_add_term2[11] i_add_term2[12] i_add_term2[13] i_add_term2[14] i_add_term2[15] i_add_term2[16] i_add_term2[17] i_add_term2[18] i_add_term2[19] i_add_term2[20] i_add_term2[21] i_add_term2[22] i_add_term2[23] i_add_term2[24] i_add_term2[25] i_add_term2[26] i_add_term2[27] i_add_term2[28] i_add_term2[29] i_add_term2[30] i_add_term2[31] i_add_term2[32] i_add_term2[33] i_add_term2[34] i_add_term2[35] i_add_term2[36] i_add_term2[37] i_add_term2[38] i_add_term2[39] i_add_term2[40] i_add_term2[41] i_add_term2[42] i_add_term2[43] i_add_term2[44] i_add_term2[45] i_add_term2[46] i_add_term2[47] sum[0] sum[1] sum[2] sum[3] sum[4] sum[5] sum[6] sum[7] sum[8] sum[9] sum[10] sum[11] sum[12] sum[13] sum[14] sum[15] sum[16] sum[17] sum[18] sum[19] sum[20] sum[21] sum[22] sum[23] sum[24] sum[25] sum[26] sum[27] sum[28] sum[29] sum[30] sum[31] sum[32] sum[33] sum[34] sum[35] sum[36] sum[37] sum[38] sum[39] sum[40] sum[41] sum[42] sum[43] sum[44] sum[45] sum[46] sum[47] cout 
XOR2X2_1 _168_ i_add_term1[10] vdd gnd i_add_term2[10] OR2X2
XNAND2X1_1 vdd _169_ gnd i_add_term2[10] i_add_term1[10] NAND2X1
XNAND3X1_1 _169_ vdd gnd _167_ _168_ _170_ NAND3X1
XNOR2X1_1 vdd i_add_term1[10] gnd _164_ i_add_term2[10] NOR2X1
XAND2X2_1 vdd gnd i_add_term2[10] i_add_term1[10] _165_ AND2X2
XOAI21X1_1 gnd vdd _164_ _165_ _166_ _11_[2] OAI21X1
XNAND2X1_2 vdd _9_[2] gnd _166_ _170_ NAND2X1
XOAI21X1_2 gnd vdd _167_ _164_ _11_[3] _169_ OAI21X1
XINVX1_1 vdd _174_ vdd gnd INVX1
XOR2X2_2 _175_ i_add_term1[8] vdd gnd i_add_term2[8] OR2X2
XNAND2X1_3 vdd _176_ gnd i_add_term2[8] i_add_term1[8] NAND2X1
XNAND3X1_2 _176_ vdd gnd _174_ _175_ _177_ NAND3X1
XNOR2X1_2 vdd i_add_term1[8] gnd _171_ i_add_term2[8] NOR2X1
XAND2X2_2 vdd gnd i_add_term2[8] i_add_term1[8] _172_ AND2X2
XOAI21X1_3 gnd vdd _171_ _172_ _173_ vdd OAI21X1
XNAND2X1_4 vdd _10_[0] gnd _173_ _177_ NAND2X1
XOAI21X1_4 gnd vdd _174_ _171_ _12_[1] _176_ OAI21X1
XINVX1_2 _12_[3] _181_ vdd gnd INVX1
XOR2X2_3 _182_ i_add_term1[11] vdd gnd i_add_term2[11] OR2X2
XNAND2X1_5 vdd _183_ gnd i_add_term2[11] i_add_term1[11] NAND2X1
XNAND3X1_3 _183_ vdd gnd _181_ _182_ _184_ NAND3X1
XNOR2X1_3 vdd i_add_term1[11] gnd _178_ i_add_term2[11] NOR2X1
XAND2X2_3 vdd gnd i_add_term2[11] i_add_term1[11] _179_ AND2X2
XOAI21X1_5 gnd vdd _178_ _179_ _180_ _12_[3] OAI21X1
XNAND2X1_6 vdd _10_[3] gnd _180_ _184_ NAND2X1
XOAI21X1_6 gnd vdd _181_ _178_ _8_ _183_ OAI21X1
XINVX1_3 _12_[1] _188_ vdd gnd INVX1
XOR2X2_4 _189_ i_add_term1[9] vdd gnd i_add_term2[9] OR2X2
XNAND2X1_7 vdd _190_ gnd i_add_term2[9] i_add_term1[9] NAND2X1
XNAND3X1_4 _190_ vdd gnd _188_ _189_ _191_ NAND3X1
XNOR2X1_4 vdd i_add_term1[9] gnd _185_ i_add_term2[9] NOR2X1
XAND2X2_4 vdd gnd i_add_term2[9] i_add_term1[9] _186_ AND2X2
XOAI21X1_7 gnd vdd _185_ _186_ _187_ _12_[1] OAI21X1
XNAND2X1_8 vdd _10_[1] gnd _187_ _191_ NAND2X1
XOAI21X1_8 gnd vdd _188_ _185_ _12_[2] _190_ OAI21X1
XINVX1_4 _12_[2] _195_ vdd gnd INVX1
XOR2X2_5 _196_ i_add_term1[10] vdd gnd i_add_term2[10] OR2X2
XNAND2X1_9 vdd _197_ gnd i_add_term2[10] i_add_term1[10] NAND2X1
XNAND3X1_5 _197_ vdd gnd _195_ _196_ _198_ NAND3X1
XNOR2X1_5 vdd i_add_term1[10] gnd _192_ i_add_term2[10] NOR2X1
XAND2X2_5 vdd gnd i_add_term2[10] i_add_term1[10] _193_ AND2X2
XOAI21X1_9 gnd vdd _192_ _193_ _194_ _12_[2] OAI21X1
XNAND2X1_10 vdd _10_[2] gnd _194_ _198_ NAND2X1
XOAI21X1_10 gnd vdd _195_ _192_ _12_[3] _197_ OAI21X1
XINVX1_5 _13_ _199_ vdd gnd INVX1
XNAND2X1_11 vdd _200_ gnd _14_ w_cout[2] NAND2X1
XOAI21X1_11 gnd vdd w_cout[2] _199_ w_cout[3] _200_ OAI21X1
XINVX1_6 _15_[0] _201_ vdd gnd INVX1
XNAND2X1_12 vdd _202_ gnd _16_[0] w_cout[2] NAND2X1
XOAI21X1_12 gnd vdd w_cout[2] _201_ _0_[12] _202_ OAI21X1
XINVX1_7 _15_[1] _203_ vdd gnd INVX1
XNAND2X1_13 vdd _204_ gnd w_cout[2] _16_[1] NAND2X1
XOAI21X1_13 gnd vdd w_cout[2] _203_ _0_[13] _204_ OAI21X1
XINVX1_8 _15_[2] _205_ vdd gnd INVX1
XNAND2X1_14 vdd _206_ gnd w_cout[2] _16_[2] NAND2X1
XOAI21X1_14 gnd vdd w_cout[2] _205_ _0_[14] _206_ OAI21X1
XINVX1_9 _15_[3] _207_ vdd gnd INVX1
XNAND2X1_15 vdd _208_ gnd w_cout[2] _16_[3] NAND2X1
XOAI21X1_15 gnd vdd w_cout[2] _207_ _0_[15] _208_ OAI21X1
XINVX1_10 gnd _212_ vdd gnd INVX1
XOR2X2_6 _213_ i_add_term1[12] vdd gnd i_add_term2[12] OR2X2
XNAND2X1_16 vdd _214_ gnd i_add_term2[12] i_add_term1[12] NAND2X1
XNAND3X1_6 _214_ vdd gnd _212_ _213_ _215_ NAND3X1
XNOR2X1_6 vdd i_add_term1[12] gnd _209_ i_add_term2[12] NOR2X1
XAND2X2_6 vdd gnd i_add_term2[12] i_add_term1[12] _210_ AND2X2
XOAI21X1_16 gnd vdd _209_ _210_ _211_ gnd OAI21X1
XNAND2X1_17 vdd _15_[0] gnd _211_ _215_ NAND2X1
XOAI21X1_17 gnd vdd _212_ _209_ _17_[1] _214_ OAI21X1
XINVX1_11 _17_[3] _219_ vdd gnd INVX1
XOR2X2_7 _220_ i_add_term1[15] vdd gnd i_add_term2[15] OR2X2
XNAND2X1_18 vdd _221_ gnd i_add_term2[15] i_add_term1[15] NAND2X1
XNAND3X1_7 _221_ vdd gnd _219_ _220_ _222_ NAND3X1
XNOR2X1_7 vdd i_add_term1[15] gnd _216_ i_add_term2[15] NOR2X1
XAND2X2_7 vdd gnd i_add_term2[15] i_add_term1[15] _217_ AND2X2
XOAI21X1_18 gnd vdd _216_ _217_ _218_ _17_[3] OAI21X1
XNAND2X1_19 vdd _15_[3] gnd _218_ _222_ NAND2X1
XOAI21X1_19 gnd vdd _219_ _216_ _13_ _221_ OAI21X1
XINVX1_12 _17_[1] _226_ vdd gnd INVX1
XOR2X2_8 _227_ i_add_term1[13] vdd gnd i_add_term2[13] OR2X2
XNAND2X1_20 vdd _228_ gnd i_add_term2[13] i_add_term1[13] NAND2X1
XNAND3X1_8 _228_ vdd gnd _226_ _227_ _229_ NAND3X1
XNOR2X1_8 vdd i_add_term1[13] gnd _223_ i_add_term2[13] NOR2X1
XAND2X2_8 vdd gnd i_add_term2[13] i_add_term1[13] _224_ AND2X2
XOAI21X1_20 gnd vdd _223_ _224_ _225_ _17_[1] OAI21X1
XNAND2X1_21 vdd _15_[1] gnd _225_ _229_ NAND2X1
XOAI21X1_21 gnd vdd _226_ _223_ _17_[2] _228_ OAI21X1
XINVX1_13 _17_[2] _233_ vdd gnd INVX1
XOR2X2_9 _234_ i_add_term1[14] vdd gnd i_add_term2[14] OR2X2
XNAND2X1_22 vdd _235_ gnd i_add_term2[14] i_add_term1[14] NAND2X1
XNAND3X1_9 _235_ vdd gnd _233_ _234_ _236_ NAND3X1
XNOR2X1_9 vdd i_add_term1[14] gnd _230_ i_add_term2[14] NOR2X1
XAND2X2_9 vdd gnd i_add_term2[14] i_add_term1[14] _231_ AND2X2
XOAI21X1_22 gnd vdd _230_ _231_ _232_ _17_[2] OAI21X1
XNAND2X1_23 vdd _15_[2] gnd _232_ _236_ NAND2X1
XOAI21X1_23 gnd vdd _233_ _230_ _17_[3] _235_ OAI21X1
XINVX1_14 vdd _240_ vdd gnd INVX1
XOR2X2_10 _241_ i_add_term1[12] vdd gnd i_add_term2[12] OR2X2
XNAND2X1_24 vdd _242_ gnd i_add_term2[12] i_add_term1[12] NAND2X1
XNAND3X1_10 _242_ vdd gnd _240_ _241_ _243_ NAND3X1
XNOR2X1_10 vdd i_add_term1[12] gnd _237_ i_add_term2[12] NOR2X1
XAND2X2_10 vdd gnd i_add_term2[12] i_add_term1[12] _238_ AND2X2
XOAI21X1_24 gnd vdd _237_ _238_ _239_ vdd OAI21X1
XNAND2X1_25 vdd _16_[0] gnd _239_ _243_ NAND2X1
XOAI21X1_25 gnd vdd _240_ _237_ _18_[1] _242_ OAI21X1
XINVX1_15 _18_[3] _247_ vdd gnd INVX1
XOR2X2_11 _248_ i_add_term1[15] vdd gnd i_add_term2[15] OR2X2
XNAND2X1_26 vdd _249_ gnd i_add_term2[15] i_add_term1[15] NAND2X1
XNAND3X1_11 _249_ vdd gnd _247_ _248_ _250_ NAND3X1
XNOR2X1_11 vdd i_add_term1[15] gnd _244_ i_add_term2[15] NOR2X1
XAND2X2_11 vdd gnd i_add_term2[15] i_add_term1[15] _245_ AND2X2
XOAI21X1_26 gnd vdd _244_ _245_ _246_ _18_[3] OAI21X1
XNAND2X1_27 vdd _16_[3] gnd _246_ _250_ NAND2X1
XOAI21X1_27 gnd vdd _247_ _244_ _14_ _249_ OAI21X1
XINVX1_16 _18_[1] _254_ vdd gnd INVX1
XOR2X2_12 _255_ i_add_term1[13] vdd gnd i_add_term2[13] OR2X2
XNAND2X1_28 vdd _256_ gnd i_add_term2[13] i_add_term1[13] NAND2X1
XNAND3X1_12 _256_ vdd gnd _254_ _255_ _257_ NAND3X1
XNOR2X1_12 vdd i_add_term1[13] gnd _251_ i_add_term2[13] NOR2X1
XAND2X2_12 vdd gnd i_add_term2[13] i_add_term1[13] _252_ AND2X2
XOAI21X1_28 gnd vdd _251_ _252_ _253_ _18_[1] OAI21X1
XNAND2X1_29 vdd _16_[1] gnd _253_ _257_ NAND2X1
XOAI21X1_29 gnd vdd _254_ _251_ _18_[2] _256_ OAI21X1
XINVX1_17 _18_[2] _261_ vdd gnd INVX1
XOR2X2_13 _262_ i_add_term1[14] vdd gnd i_add_term2[14] OR2X2
XNAND2X1_30 vdd _263_ gnd i_add_term2[14] i_add_term1[14] NAND2X1
XNAND3X1_13 _263_ vdd gnd _261_ _262_ _264_ NAND3X1
XNOR2X1_13 vdd i_add_term1[14] gnd _258_ i_add_term2[14] NOR2X1
XAND2X2_13 vdd gnd i_add_term2[14] i_add_term1[14] _259_ AND2X2
XOAI21X1_30 gnd vdd _258_ _259_ _260_ _18_[2] OAI21X1
XNAND2X1_31 vdd _16_[2] gnd _260_ _264_ NAND2X1
XOAI21X1_31 gnd vdd _261_ _258_ _18_[3] _263_ OAI21X1
XINVX1_18 _19_ _265_ vdd gnd INVX1
XNAND2X1_32 vdd _266_ gnd _20_ w_cout[3] NAND2X1
XOAI21X1_32 gnd vdd w_cout[3] _265_ w_cout[4] _266_ OAI21X1
XINVX1_19 _21_[0] _267_ vdd gnd INVX1
XNAND2X1_33 vdd _268_ gnd _22_[0] w_cout[3] NAND2X1
XOAI21X1_33 gnd vdd w_cout[3] _267_ _0_[16] _268_ OAI21X1
XINVX1_20 _21_[1] _269_ vdd gnd INVX1
XNAND2X1_34 vdd _270_ gnd w_cout[3] _22_[1] NAND2X1
XOAI21X1_34 gnd vdd w_cout[3] _269_ _0_[17] _270_ OAI21X1
XINVX1_21 _21_[2] _271_ vdd gnd INVX1
XNAND2X1_35 vdd _272_ gnd w_cout[3] _22_[2] NAND2X1
XOAI21X1_35 gnd vdd w_cout[3] _271_ _0_[18] _272_ OAI21X1
XINVX1_22 _21_[3] _273_ vdd gnd INVX1
XNAND2X1_36 vdd _274_ gnd w_cout[3] _22_[3] NAND2X1
XOAI21X1_36 gnd vdd w_cout[3] _273_ _0_[19] _274_ OAI21X1
XINVX1_23 gnd _278_ vdd gnd INVX1
XOR2X2_14 _279_ i_add_term1[16] vdd gnd i_add_term2[16] OR2X2
XNAND2X1_37 vdd _280_ gnd i_add_term2[16] i_add_term1[16] NAND2X1
XNAND3X1_14 _280_ vdd gnd _278_ _279_ _281_ NAND3X1
XNOR2X1_14 vdd i_add_term1[16] gnd _275_ i_add_term2[16] NOR2X1
XAND2X2_14 vdd gnd i_add_term2[16] i_add_term1[16] _276_ AND2X2
XOAI21X1_37 gnd vdd _275_ _276_ _277_ gnd OAI21X1
XNAND2X1_38 vdd _21_[0] gnd _277_ _281_ NAND2X1
XOAI21X1_38 gnd vdd _278_ _275_ _23_[1] _280_ OAI21X1
XINVX1_24 _23_[3] _285_ vdd gnd INVX1
XOR2X2_15 _286_ i_add_term1[19] vdd gnd i_add_term2[19] OR2X2
XNAND2X1_39 vdd _287_ gnd i_add_term2[19] i_add_term1[19] NAND2X1
XNAND3X1_15 _287_ vdd gnd _285_ _286_ _288_ NAND3X1
XNOR2X1_15 vdd i_add_term1[19] gnd _282_ i_add_term2[19] NOR2X1
XAND2X2_15 vdd gnd i_add_term2[19] i_add_term1[19] _283_ AND2X2
XOAI21X1_39 gnd vdd _282_ _283_ _284_ _23_[3] OAI21X1
XNAND2X1_40 vdd _21_[3] gnd _284_ _288_ NAND2X1
XOAI21X1_40 gnd vdd _285_ _282_ _19_ _287_ OAI21X1
XINVX1_25 _23_[1] _292_ vdd gnd INVX1
XOR2X2_16 _293_ i_add_term1[17] vdd gnd i_add_term2[17] OR2X2
XNAND2X1_41 vdd _294_ gnd i_add_term2[17] i_add_term1[17] NAND2X1
XNAND3X1_16 _294_ vdd gnd _292_ _293_ _295_ NAND3X1
XNOR2X1_16 vdd i_add_term1[17] gnd _289_ i_add_term2[17] NOR2X1
XAND2X2_16 vdd gnd i_add_term2[17] i_add_term1[17] _290_ AND2X2
XOAI21X1_41 gnd vdd _289_ _290_ _291_ _23_[1] OAI21X1
XNAND2X1_42 vdd _21_[1] gnd _291_ _295_ NAND2X1
XOAI21X1_42 gnd vdd _292_ _289_ _23_[2] _294_ OAI21X1
XINVX1_26 _23_[2] _299_ vdd gnd INVX1
XOR2X2_17 _300_ i_add_term1[18] vdd gnd i_add_term2[18] OR2X2
XNAND2X1_43 vdd _301_ gnd i_add_term2[18] i_add_term1[18] NAND2X1
XNAND3X1_17 _301_ vdd gnd _299_ _300_ _302_ NAND3X1
XNOR2X1_17 vdd i_add_term1[18] gnd _296_ i_add_term2[18] NOR2X1
XAND2X2_17 vdd gnd i_add_term2[18] i_add_term1[18] _297_ AND2X2
XOAI21X1_43 gnd vdd _296_ _297_ _298_ _23_[2] OAI21X1
XNAND2X1_44 vdd _21_[2] gnd _298_ _302_ NAND2X1
XOAI21X1_44 gnd vdd _299_ _296_ _23_[3] _301_ OAI21X1
XINVX1_27 vdd _306_ vdd gnd INVX1
XOR2X2_18 _307_ i_add_term1[16] vdd gnd i_add_term2[16] OR2X2
XNAND2X1_45 vdd _308_ gnd i_add_term2[16] i_add_term1[16] NAND2X1
XNAND3X1_18 _308_ vdd gnd _306_ _307_ _309_ NAND3X1
XNOR2X1_18 vdd i_add_term1[16] gnd _303_ i_add_term2[16] NOR2X1
XAND2X2_18 vdd gnd i_add_term2[16] i_add_term1[16] _304_ AND2X2
XOAI21X1_45 gnd vdd _303_ _304_ _305_ vdd OAI21X1
XNAND2X1_46 vdd _22_[0] gnd _305_ _309_ NAND2X1
XOAI21X1_46 gnd vdd _306_ _303_ _24_[1] _308_ OAI21X1
XINVX1_28 _24_[3] _313_ vdd gnd INVX1
XOR2X2_19 _314_ i_add_term1[19] vdd gnd i_add_term2[19] OR2X2
XNAND2X1_47 vdd _315_ gnd i_add_term2[19] i_add_term1[19] NAND2X1
XNAND3X1_19 _315_ vdd gnd _313_ _314_ _316_ NAND3X1
XNOR2X1_19 vdd i_add_term1[19] gnd _310_ i_add_term2[19] NOR2X1
XAND2X2_19 vdd gnd i_add_term2[19] i_add_term1[19] _311_ AND2X2
XOAI21X1_47 gnd vdd _310_ _311_ _312_ _24_[3] OAI21X1
XNAND2X1_48 vdd _22_[3] gnd _312_ _316_ NAND2X1
XOAI21X1_48 gnd vdd _313_ _310_ _20_ _315_ OAI21X1
XINVX1_29 _24_[1] _320_ vdd gnd INVX1
XOR2X2_20 _321_ i_add_term1[17] vdd gnd i_add_term2[17] OR2X2
XNAND2X1_49 vdd _322_ gnd i_add_term2[17] i_add_term1[17] NAND2X1
XNAND3X1_20 _322_ vdd gnd _320_ _321_ _323_ NAND3X1
XNOR2X1_20 vdd i_add_term1[17] gnd _317_ i_add_term2[17] NOR2X1
XAND2X2_20 vdd gnd i_add_term2[17] i_add_term1[17] _318_ AND2X2
XOAI21X1_49 gnd vdd _317_ _318_ _319_ _24_[1] OAI21X1
XNAND2X1_50 vdd _22_[1] gnd _319_ _323_ NAND2X1
XOAI21X1_50 gnd vdd _320_ _317_ _24_[2] _322_ OAI21X1
XINVX1_30 _24_[2] _327_ vdd gnd INVX1
XOR2X2_21 _328_ i_add_term1[18] vdd gnd i_add_term2[18] OR2X2
XNAND2X1_51 vdd _329_ gnd i_add_term2[18] i_add_term1[18] NAND2X1
XNAND3X1_21 _329_ vdd gnd _327_ _328_ _330_ NAND3X1
XNOR2X1_21 vdd i_add_term1[18] gnd _324_ i_add_term2[18] NOR2X1
XAND2X2_21 vdd gnd i_add_term2[18] i_add_term1[18] _325_ AND2X2
XOAI21X1_51 gnd vdd _324_ _325_ _326_ _24_[2] OAI21X1
XNAND2X1_52 vdd _22_[2] gnd _326_ _330_ NAND2X1
XOAI21X1_52 gnd vdd _327_ _324_ _24_[3] _329_ OAI21X1
XINVX1_31 _25_ _331_ vdd gnd INVX1
XNAND2X1_53 vdd _332_ gnd _26_ w_cout[4] NAND2X1
XOAI21X1_53 gnd vdd w_cout[4] _331_ w_cout[5] _332_ OAI21X1
XINVX1_32 _27_[0] _333_ vdd gnd INVX1
XNAND2X1_54 vdd _334_ gnd _28_[0] w_cout[4] NAND2X1
XOAI21X1_54 gnd vdd w_cout[4] _333_ _0_[20] _334_ OAI21X1
XINVX1_33 _27_[1] _335_ vdd gnd INVX1
XNAND2X1_55 vdd _336_ gnd w_cout[4] _28_[1] NAND2X1
XOAI21X1_55 gnd vdd w_cout[4] _335_ _0_[21] _336_ OAI21X1
XINVX1_34 _27_[2] _337_ vdd gnd INVX1
XNAND2X1_56 vdd _338_ gnd w_cout[4] _28_[2] NAND2X1
XOAI21X1_56 gnd vdd w_cout[4] _337_ _0_[22] _338_ OAI21X1
XINVX1_35 _27_[3] _339_ vdd gnd INVX1
XNAND2X1_57 vdd _340_ gnd w_cout[4] _28_[3] NAND2X1
XOAI21X1_57 gnd vdd w_cout[4] _339_ _0_[23] _340_ OAI21X1
XINVX1_36 gnd _344_ vdd gnd INVX1
XOR2X2_22 _345_ i_add_term1[20] vdd gnd i_add_term2[20] OR2X2
XNAND2X1_58 vdd _346_ gnd i_add_term2[20] i_add_term1[20] NAND2X1
XNAND3X1_22 _346_ vdd gnd _344_ _345_ _347_ NAND3X1
XNOR2X1_22 vdd i_add_term1[20] gnd _341_ i_add_term2[20] NOR2X1
XAND2X2_22 vdd gnd i_add_term2[20] i_add_term1[20] _342_ AND2X2
XOAI21X1_58 gnd vdd _341_ _342_ _343_ gnd OAI21X1
XNAND2X1_59 vdd _27_[0] gnd _343_ _347_ NAND2X1
XOAI21X1_59 gnd vdd _344_ _341_ _29_[1] _346_ OAI21X1
XINVX1_37 _29_[3] _351_ vdd gnd INVX1
XOR2X2_23 _352_ i_add_term1[23] vdd gnd i_add_term2[23] OR2X2
XNAND2X1_60 vdd _353_ gnd i_add_term2[23] i_add_term1[23] NAND2X1
XNAND3X1_23 _353_ vdd gnd _351_ _352_ _354_ NAND3X1
XNOR2X1_23 vdd i_add_term1[23] gnd _348_ i_add_term2[23] NOR2X1
XAND2X2_23 vdd gnd i_add_term2[23] i_add_term1[23] _349_ AND2X2
XOAI21X1_60 gnd vdd _348_ _349_ _350_ _29_[3] OAI21X1
XNAND2X1_61 vdd _27_[3] gnd _350_ _354_ NAND2X1
XOAI21X1_61 gnd vdd _351_ _348_ _25_ _353_ OAI21X1
XINVX1_38 _29_[1] _358_ vdd gnd INVX1
XOR2X2_24 _359_ i_add_term1[21] vdd gnd i_add_term2[21] OR2X2
XNAND2X1_62 vdd _360_ gnd i_add_term2[21] i_add_term1[21] NAND2X1
XNAND3X1_24 _360_ vdd gnd _358_ _359_ _361_ NAND3X1
XNOR2X1_24 vdd i_add_term1[21] gnd _355_ i_add_term2[21] NOR2X1
XAND2X2_24 vdd gnd i_add_term2[21] i_add_term1[21] _356_ AND2X2
XOAI21X1_62 gnd vdd _355_ _356_ _357_ _29_[1] OAI21X1
XNAND2X1_63 vdd _27_[1] gnd _357_ _361_ NAND2X1
XOAI21X1_63 gnd vdd _358_ _355_ _29_[2] _360_ OAI21X1
XINVX1_39 _29_[2] _365_ vdd gnd INVX1
XOR2X2_25 _366_ i_add_term1[22] vdd gnd i_add_term2[22] OR2X2
XNAND2X1_64 vdd _367_ gnd i_add_term2[22] i_add_term1[22] NAND2X1
XNAND3X1_25 _367_ vdd gnd _365_ _366_ _368_ NAND3X1
XNOR2X1_25 vdd i_add_term1[22] gnd _362_ i_add_term2[22] NOR2X1
XAND2X2_25 vdd gnd i_add_term2[22] i_add_term1[22] _363_ AND2X2
XOAI21X1_64 gnd vdd _362_ _363_ _364_ _29_[2] OAI21X1
XNAND2X1_65 vdd _27_[2] gnd _364_ _368_ NAND2X1
XOAI21X1_65 gnd vdd _365_ _362_ _29_[3] _367_ OAI21X1
XINVX1_40 vdd _372_ vdd gnd INVX1
XOR2X2_26 _373_ i_add_term1[20] vdd gnd i_add_term2[20] OR2X2
XNAND2X1_66 vdd _374_ gnd i_add_term2[20] i_add_term1[20] NAND2X1
XNAND3X1_26 _374_ vdd gnd _372_ _373_ _375_ NAND3X1
XNOR2X1_26 vdd i_add_term1[20] gnd _369_ i_add_term2[20] NOR2X1
XAND2X2_26 vdd gnd i_add_term2[20] i_add_term1[20] _370_ AND2X2
XOAI21X1_66 gnd vdd _369_ _370_ _371_ vdd OAI21X1
XNAND2X1_67 vdd _28_[0] gnd _371_ _375_ NAND2X1
XOAI21X1_67 gnd vdd _372_ _369_ _30_[1] _374_ OAI21X1
XINVX1_41 _30_[3] _379_ vdd gnd INVX1
XOR2X2_27 _380_ i_add_term1[23] vdd gnd i_add_term2[23] OR2X2
XNAND2X1_68 vdd _381_ gnd i_add_term2[23] i_add_term1[23] NAND2X1
XNAND3X1_27 _381_ vdd gnd _379_ _380_ _382_ NAND3X1
XNOR2X1_27 vdd i_add_term1[23] gnd _376_ i_add_term2[23] NOR2X1
XAND2X2_27 vdd gnd i_add_term2[23] i_add_term1[23] _377_ AND2X2
XOAI21X1_68 gnd vdd _376_ _377_ _378_ _30_[3] OAI21X1
XNAND2X1_69 vdd _28_[3] gnd _378_ _382_ NAND2X1
XOAI21X1_69 gnd vdd _379_ _376_ _26_ _381_ OAI21X1
XINVX1_42 _30_[1] _386_ vdd gnd INVX1
XOR2X2_28 _387_ i_add_term1[21] vdd gnd i_add_term2[21] OR2X2
XNAND2X1_70 vdd _388_ gnd i_add_term2[21] i_add_term1[21] NAND2X1
XNAND3X1_28 _388_ vdd gnd _386_ _387_ _389_ NAND3X1
XNOR2X1_28 vdd i_add_term1[21] gnd _383_ i_add_term2[21] NOR2X1
XAND2X2_28 vdd gnd i_add_term2[21] i_add_term1[21] _384_ AND2X2
XOAI21X1_70 gnd vdd _383_ _384_ _385_ _30_[1] OAI21X1
XNAND2X1_71 vdd _28_[1] gnd _385_ _389_ NAND2X1
XOAI21X1_71 gnd vdd _386_ _383_ _30_[2] _388_ OAI21X1
XINVX1_43 _30_[2] _393_ vdd gnd INVX1
XOR2X2_29 _394_ i_add_term1[22] vdd gnd i_add_term2[22] OR2X2
XNAND2X1_72 vdd _395_ gnd i_add_term2[22] i_add_term1[22] NAND2X1
XNAND3X1_29 _395_ vdd gnd _393_ _394_ _396_ NAND3X1
XNOR2X1_29 vdd i_add_term1[22] gnd _390_ i_add_term2[22] NOR2X1
XAND2X2_29 vdd gnd i_add_term2[22] i_add_term1[22] _391_ AND2X2
XOAI21X1_72 gnd vdd _390_ _391_ _392_ _30_[2] OAI21X1
XNAND2X1_73 vdd _28_[2] gnd _392_ _396_ NAND2X1
XOAI21X1_73 gnd vdd _393_ _390_ _30_[3] _395_ OAI21X1
XINVX1_44 _31_ _397_ vdd gnd INVX1
XNAND2X1_74 vdd _398_ gnd _32_ w_cout[5] NAND2X1
XOAI21X1_74 gnd vdd w_cout[5] _397_ w_cout[6] _398_ OAI21X1
XINVX1_45 _33_[0] _399_ vdd gnd INVX1
XNAND2X1_75 vdd _400_ gnd _34_[0] w_cout[5] NAND2X1
XOAI21X1_75 gnd vdd w_cout[5] _399_ _0_[24] _400_ OAI21X1
XINVX1_46 _33_[1] _401_ vdd gnd INVX1
XNAND2X1_76 vdd _402_ gnd w_cout[5] _34_[1] NAND2X1
XOAI21X1_76 gnd vdd w_cout[5] _401_ _0_[25] _402_ OAI21X1
XINVX1_47 _33_[2] _403_ vdd gnd INVX1
XNAND2X1_77 vdd _404_ gnd w_cout[5] _34_[2] NAND2X1
XOAI21X1_77 gnd vdd w_cout[5] _403_ _0_[26] _404_ OAI21X1
XINVX1_48 _33_[3] _405_ vdd gnd INVX1
XNAND2X1_78 vdd _406_ gnd w_cout[5] _34_[3] NAND2X1
XOAI21X1_78 gnd vdd w_cout[5] _405_ _0_[27] _406_ OAI21X1
XINVX1_49 gnd _410_ vdd gnd INVX1
XOR2X2_30 _411_ i_add_term1[24] vdd gnd i_add_term2[24] OR2X2
XNAND2X1_79 vdd _412_ gnd i_add_term2[24] i_add_term1[24] NAND2X1
XNAND3X1_30 _412_ vdd gnd _410_ _411_ _413_ NAND3X1
XNOR2X1_30 vdd i_add_term1[24] gnd _407_ i_add_term2[24] NOR2X1
XAND2X2_30 vdd gnd i_add_term2[24] i_add_term1[24] _408_ AND2X2
XOAI21X1_79 gnd vdd _407_ _408_ _409_ gnd OAI21X1
XNAND2X1_80 vdd _33_[0] gnd _409_ _413_ NAND2X1
XOAI21X1_80 gnd vdd _410_ _407_ _35_[1] _412_ OAI21X1
XINVX1_50 _35_[3] _417_ vdd gnd INVX1
XOR2X2_31 _418_ i_add_term1[27] vdd gnd i_add_term2[27] OR2X2
XNAND2X1_81 vdd _419_ gnd i_add_term2[27] i_add_term1[27] NAND2X1
XNAND3X1_31 _419_ vdd gnd _417_ _418_ _420_ NAND3X1
XNOR2X1_31 vdd i_add_term1[27] gnd _414_ i_add_term2[27] NOR2X1
XAND2X2_31 vdd gnd i_add_term2[27] i_add_term1[27] _415_ AND2X2
XOAI21X1_81 gnd vdd _414_ _415_ _416_ _35_[3] OAI21X1
XNAND2X1_82 vdd _33_[3] gnd _416_ _420_ NAND2X1
XOAI21X1_82 gnd vdd _417_ _414_ _31_ _419_ OAI21X1
XINVX1_51 _35_[1] _424_ vdd gnd INVX1
XOR2X2_32 _425_ i_add_term1[25] vdd gnd i_add_term2[25] OR2X2
XNAND2X1_83 vdd _426_ gnd i_add_term2[25] i_add_term1[25] NAND2X1
XNAND3X1_32 _426_ vdd gnd _424_ _425_ _427_ NAND3X1
XNOR2X1_32 vdd i_add_term1[25] gnd _421_ i_add_term2[25] NOR2X1
XAND2X2_32 vdd gnd i_add_term2[25] i_add_term1[25] _422_ AND2X2
XOAI21X1_83 gnd vdd _421_ _422_ _423_ _35_[1] OAI21X1
XNAND2X1_84 vdd _33_[1] gnd _423_ _427_ NAND2X1
XOAI21X1_84 gnd vdd _424_ _421_ _35_[2] _426_ OAI21X1
XINVX1_52 _35_[2] _431_ vdd gnd INVX1
XOR2X2_33 _432_ i_add_term1[26] vdd gnd i_add_term2[26] OR2X2
XNAND2X1_85 vdd _433_ gnd i_add_term2[26] i_add_term1[26] NAND2X1
XNAND3X1_33 _433_ vdd gnd _431_ _432_ _434_ NAND3X1
XNOR2X1_33 vdd i_add_term1[26] gnd _428_ i_add_term2[26] NOR2X1
XAND2X2_33 vdd gnd i_add_term2[26] i_add_term1[26] _429_ AND2X2
XOAI21X1_85 gnd vdd _428_ _429_ _430_ _35_[2] OAI21X1
XNAND2X1_86 vdd _33_[2] gnd _430_ _434_ NAND2X1
XOAI21X1_86 gnd vdd _431_ _428_ _35_[3] _433_ OAI21X1
XINVX1_53 vdd _438_ vdd gnd INVX1
XOR2X2_34 _439_ i_add_term1[24] vdd gnd i_add_term2[24] OR2X2
XNAND2X1_87 vdd _440_ gnd i_add_term2[24] i_add_term1[24] NAND2X1
XNAND3X1_34 _440_ vdd gnd _438_ _439_ _441_ NAND3X1
XNOR2X1_34 vdd i_add_term1[24] gnd _435_ i_add_term2[24] NOR2X1
XAND2X2_34 vdd gnd i_add_term2[24] i_add_term1[24] _436_ AND2X2
XOAI21X1_87 gnd vdd _435_ _436_ _437_ vdd OAI21X1
XNAND2X1_88 vdd _34_[0] gnd _437_ _441_ NAND2X1
XOAI21X1_88 gnd vdd _438_ _435_ _36_[1] _440_ OAI21X1
XINVX1_54 _36_[3] _445_ vdd gnd INVX1
XOR2X2_35 _446_ i_add_term1[27] vdd gnd i_add_term2[27] OR2X2
XNAND2X1_89 vdd _447_ gnd i_add_term2[27] i_add_term1[27] NAND2X1
XNAND3X1_35 _447_ vdd gnd _445_ _446_ _448_ NAND3X1
XNOR2X1_35 vdd i_add_term1[27] gnd _442_ i_add_term2[27] NOR2X1
XAND2X2_35 vdd gnd i_add_term2[27] i_add_term1[27] _443_ AND2X2
XOAI21X1_89 gnd vdd _442_ _443_ _444_ _36_[3] OAI21X1
XNAND2X1_90 vdd _34_[3] gnd _444_ _448_ NAND2X1
XOAI21X1_90 gnd vdd _445_ _442_ _32_ _447_ OAI21X1
XINVX1_55 _36_[1] _452_ vdd gnd INVX1
XOR2X2_36 _453_ i_add_term1[25] vdd gnd i_add_term2[25] OR2X2
XNAND2X1_91 vdd _454_ gnd i_add_term2[25] i_add_term1[25] NAND2X1
XNAND3X1_36 _454_ vdd gnd _452_ _453_ _455_ NAND3X1
XNOR2X1_36 vdd i_add_term1[25] gnd _449_ i_add_term2[25] NOR2X1
XAND2X2_36 vdd gnd i_add_term2[25] i_add_term1[25] _450_ AND2X2
XOAI21X1_91 gnd vdd _449_ _450_ _451_ _36_[1] OAI21X1
XNAND2X1_92 vdd _34_[1] gnd _451_ _455_ NAND2X1
XOAI21X1_92 gnd vdd _452_ _449_ _36_[2] _454_ OAI21X1
XINVX1_56 _36_[2] _459_ vdd gnd INVX1
XOR2X2_37 _460_ i_add_term1[26] vdd gnd i_add_term2[26] OR2X2
XNAND2X1_93 vdd _461_ gnd i_add_term2[26] i_add_term1[26] NAND2X1
XNAND3X1_37 _461_ vdd gnd _459_ _460_ _462_ NAND3X1
XNOR2X1_37 vdd i_add_term1[26] gnd _456_ i_add_term2[26] NOR2X1
XAND2X2_37 vdd gnd i_add_term2[26] i_add_term1[26] _457_ AND2X2
XOAI21X1_93 gnd vdd _456_ _457_ _458_ _36_[2] OAI21X1
XNAND2X1_94 vdd _34_[2] gnd _458_ _462_ NAND2X1
XOAI21X1_94 gnd vdd _459_ _456_ _36_[3] _461_ OAI21X1
XINVX1_57 _37_ _463_ vdd gnd INVX1
XNAND2X1_95 vdd _464_ gnd _38_ w_cout[6] NAND2X1
XOAI21X1_95 gnd vdd w_cout[6] _463_ w_cout[7] _464_ OAI21X1
XINVX1_58 _39_[0] _465_ vdd gnd INVX1
XNAND2X1_96 vdd _466_ gnd _40_[0] w_cout[6] NAND2X1
XOAI21X1_96 gnd vdd w_cout[6] _465_ _0_[28] _466_ OAI21X1
XINVX1_59 _39_[1] _467_ vdd gnd INVX1
XNAND2X1_97 vdd _468_ gnd w_cout[6] _40_[1] NAND2X1
XOAI21X1_97 gnd vdd w_cout[6] _467_ _0_[29] _468_ OAI21X1
XINVX1_60 _39_[2] _469_ vdd gnd INVX1
XNAND2X1_98 vdd _470_ gnd w_cout[6] _40_[2] NAND2X1
XOAI21X1_98 gnd vdd w_cout[6] _469_ _0_[30] _470_ OAI21X1
XINVX1_61 _39_[3] _471_ vdd gnd INVX1
XNAND2X1_99 vdd _472_ gnd w_cout[6] _40_[3] NAND2X1
XOAI21X1_99 gnd vdd w_cout[6] _471_ _0_[31] _472_ OAI21X1
XINVX1_62 gnd _476_ vdd gnd INVX1
XOR2X2_38 _477_ i_add_term1[28] vdd gnd i_add_term2[28] OR2X2
XNAND2X1_100 vdd _478_ gnd i_add_term2[28] i_add_term1[28] NAND2X1
XNAND3X1_38 _478_ vdd gnd _476_ _477_ _479_ NAND3X1
XNOR2X1_38 vdd i_add_term1[28] gnd _473_ i_add_term2[28] NOR2X1
XAND2X2_38 vdd gnd i_add_term2[28] i_add_term1[28] _474_ AND2X2
XOAI21X1_100 gnd vdd _473_ _474_ _475_ gnd OAI21X1
XNAND2X1_101 vdd _39_[0] gnd _475_ _479_ NAND2X1
XOAI21X1_101 gnd vdd _476_ _473_ _41_[1] _478_ OAI21X1
XINVX1_63 _41_[3] _483_ vdd gnd INVX1
XOR2X2_39 _484_ i_add_term1[31] vdd gnd i_add_term2[31] OR2X2
XNAND2X1_102 vdd _485_ gnd i_add_term2[31] i_add_term1[31] NAND2X1
XNAND3X1_39 _485_ vdd gnd _483_ _484_ _486_ NAND3X1
XNOR2X1_39 vdd i_add_term1[31] gnd _480_ i_add_term2[31] NOR2X1
XAND2X2_39 vdd gnd i_add_term2[31] i_add_term1[31] _481_ AND2X2
XOAI21X1_102 gnd vdd _480_ _481_ _482_ _41_[3] OAI21X1
XNAND2X1_103 vdd _39_[3] gnd _482_ _486_ NAND2X1
XOAI21X1_103 gnd vdd _483_ _480_ _37_ _485_ OAI21X1
XINVX1_64 _41_[1] _490_ vdd gnd INVX1
XOR2X2_40 _491_ i_add_term1[29] vdd gnd i_add_term2[29] OR2X2
XNAND2X1_104 vdd _492_ gnd i_add_term2[29] i_add_term1[29] NAND2X1
XNAND3X1_40 _492_ vdd gnd _490_ _491_ _493_ NAND3X1
XNOR2X1_40 vdd i_add_term1[29] gnd _487_ i_add_term2[29] NOR2X1
XAND2X2_40 vdd gnd i_add_term2[29] i_add_term1[29] _488_ AND2X2
XOAI21X1_104 gnd vdd _487_ _488_ _489_ _41_[1] OAI21X1
XNAND2X1_105 vdd _39_[1] gnd _489_ _493_ NAND2X1
XOAI21X1_105 gnd vdd _490_ _487_ _41_[2] _492_ OAI21X1
XINVX1_65 _41_[2] _497_ vdd gnd INVX1
XOR2X2_41 _498_ i_add_term1[30] vdd gnd i_add_term2[30] OR2X2
XNAND2X1_106 vdd _499_ gnd i_add_term2[30] i_add_term1[30] NAND2X1
XNAND3X1_41 _499_ vdd gnd _497_ _498_ _500_ NAND3X1
XNOR2X1_41 vdd i_add_term1[30] gnd _494_ i_add_term2[30] NOR2X1
XAND2X2_41 vdd gnd i_add_term2[30] i_add_term1[30] _495_ AND2X2
XOAI21X1_106 gnd vdd _494_ _495_ _496_ _41_[2] OAI21X1
XNAND2X1_107 vdd _39_[2] gnd _496_ _500_ NAND2X1
XOAI21X1_107 gnd vdd _497_ _494_ _41_[3] _499_ OAI21X1
XINVX1_66 vdd _504_ vdd gnd INVX1
XOR2X2_42 _505_ i_add_term1[28] vdd gnd i_add_term2[28] OR2X2
XNAND2X1_108 vdd _506_ gnd i_add_term2[28] i_add_term1[28] NAND2X1
XNAND3X1_42 _506_ vdd gnd _504_ _505_ _507_ NAND3X1
XNOR2X1_42 vdd i_add_term1[28] gnd _501_ i_add_term2[28] NOR2X1
XAND2X2_42 vdd gnd i_add_term2[28] i_add_term1[28] _502_ AND2X2
XOAI21X1_108 gnd vdd _501_ _502_ _503_ vdd OAI21X1
XNAND2X1_109 vdd _40_[0] gnd _503_ _507_ NAND2X1
XOAI21X1_109 gnd vdd _504_ _501_ _42_[1] _506_ OAI21X1
XINVX1_67 _42_[3] _511_ vdd gnd INVX1
XOR2X2_43 _512_ i_add_term1[31] vdd gnd i_add_term2[31] OR2X2
XNAND2X1_110 vdd _513_ gnd i_add_term2[31] i_add_term1[31] NAND2X1
XNAND3X1_43 _513_ vdd gnd _511_ _512_ _514_ NAND3X1
XNOR2X1_43 vdd i_add_term1[31] gnd _508_ i_add_term2[31] NOR2X1
XAND2X2_43 vdd gnd i_add_term2[31] i_add_term1[31] _509_ AND2X2
XOAI21X1_110 gnd vdd _508_ _509_ _510_ _42_[3] OAI21X1
XNAND2X1_111 vdd _40_[3] gnd _510_ _514_ NAND2X1
XOAI21X1_111 gnd vdd _511_ _508_ _38_ _513_ OAI21X1
XINVX1_68 _42_[1] _518_ vdd gnd INVX1
XOR2X2_44 _519_ i_add_term1[29] vdd gnd i_add_term2[29] OR2X2
XNAND2X1_112 vdd _520_ gnd i_add_term2[29] i_add_term1[29] NAND2X1
XNAND3X1_44 _520_ vdd gnd _518_ _519_ _521_ NAND3X1
XNOR2X1_44 vdd i_add_term1[29] gnd _515_ i_add_term2[29] NOR2X1
XAND2X2_44 vdd gnd i_add_term2[29] i_add_term1[29] _516_ AND2X2
XOAI21X1_112 gnd vdd _515_ _516_ _517_ _42_[1] OAI21X1
XNAND2X1_113 vdd _40_[1] gnd _517_ _521_ NAND2X1
XOAI21X1_113 gnd vdd _518_ _515_ _42_[2] _520_ OAI21X1
XINVX1_69 _42_[2] _525_ vdd gnd INVX1
XOR2X2_45 _526_ i_add_term1[30] vdd gnd i_add_term2[30] OR2X2
XNAND2X1_114 vdd _527_ gnd i_add_term2[30] i_add_term1[30] NAND2X1
XNAND3X1_45 _527_ vdd gnd _525_ _526_ _528_ NAND3X1
XNOR2X1_45 vdd i_add_term1[30] gnd _522_ i_add_term2[30] NOR2X1
XAND2X2_45 vdd gnd i_add_term2[30] i_add_term1[30] _523_ AND2X2
XOAI21X1_114 gnd vdd _522_ _523_ _524_ _42_[2] OAI21X1
XNAND2X1_115 vdd _40_[2] gnd _524_ _528_ NAND2X1
XOAI21X1_115 gnd vdd _525_ _522_ _42_[3] _527_ OAI21X1
XINVX1_70 _43_ _529_ vdd gnd INVX1
XNAND2X1_116 vdd _530_ gnd _44_ w_cout[7] NAND2X1
XOAI21X1_116 gnd vdd w_cout[7] _529_ w_cout[8] _530_ OAI21X1
XINVX1_71 _45_[0] _531_ vdd gnd INVX1
XNAND2X1_117 vdd _532_ gnd _46_[0] w_cout[7] NAND2X1
XOAI21X1_117 gnd vdd w_cout[7] _531_ _0_[32] _532_ OAI21X1
XINVX1_72 _45_[1] _533_ vdd gnd INVX1
XNAND2X1_118 vdd _534_ gnd w_cout[7] _46_[1] NAND2X1
XOAI21X1_118 gnd vdd w_cout[7] _533_ _0_[33] _534_ OAI21X1
XINVX1_73 _45_[2] _535_ vdd gnd INVX1
XNAND2X1_119 vdd _536_ gnd w_cout[7] _46_[2] NAND2X1
XOAI21X1_119 gnd vdd w_cout[7] _535_ _0_[34] _536_ OAI21X1
XINVX1_74 _45_[3] _537_ vdd gnd INVX1
XNAND2X1_120 vdd _538_ gnd w_cout[7] _46_[3] NAND2X1
XOAI21X1_120 gnd vdd w_cout[7] _537_ _0_[35] _538_ OAI21X1
XINVX1_75 gnd _542_ vdd gnd INVX1
XOR2X2_46 _543_ i_add_term1[32] vdd gnd i_add_term2[32] OR2X2
XNAND2X1_121 vdd _544_ gnd i_add_term2[32] i_add_term1[32] NAND2X1
XNAND3X1_46 _544_ vdd gnd _542_ _543_ _545_ NAND3X1
XNOR2X1_46 vdd i_add_term1[32] gnd _539_ i_add_term2[32] NOR2X1
XAND2X2_46 vdd gnd i_add_term2[32] i_add_term1[32] _540_ AND2X2
XOAI21X1_121 gnd vdd _539_ _540_ _541_ gnd OAI21X1
XNAND2X1_122 vdd _45_[0] gnd _541_ _545_ NAND2X1
XOAI21X1_122 gnd vdd _542_ _539_ _47_[1] _544_ OAI21X1
XINVX1_76 _47_[3] _549_ vdd gnd INVX1
XOR2X2_47 _550_ i_add_term1[35] vdd gnd i_add_term2[35] OR2X2
XNAND2X1_123 vdd _551_ gnd i_add_term2[35] i_add_term1[35] NAND2X1
XNAND3X1_47 _551_ vdd gnd _549_ _550_ _552_ NAND3X1
XNOR2X1_47 vdd i_add_term1[35] gnd _546_ i_add_term2[35] NOR2X1
XAND2X2_47 vdd gnd i_add_term2[35] i_add_term1[35] _547_ AND2X2
XOAI21X1_123 gnd vdd _546_ _547_ _548_ _47_[3] OAI21X1
XNAND2X1_124 vdd _45_[3] gnd _548_ _552_ NAND2X1
XOAI21X1_124 gnd vdd _549_ _546_ _43_ _551_ OAI21X1
XINVX1_77 _47_[1] _556_ vdd gnd INVX1
XOR2X2_48 _557_ i_add_term1[33] vdd gnd i_add_term2[33] OR2X2