* XSpice netlist created from SPICE and liberty sources by spi2xspice.py
*SPICE netlist created from BLIF module csa_53bit by blif2BSpice
.subckt csa_53bit a_vdd a_gnd a_i_add_term1_0_ a_i_add_term1_1_ a_i_add_term1_2_ a_i_add_term1_3_ a_i_add_term1_4_ a_i_add_term1_5_ a_i_add_term1_6_ a_i_add_term1_7_ a_i_add_term1_8_ a_i_add_term1_9_ a_i_add_term1_10_ a_i_add_term1_11_ a_i_add_term1_12_ a_i_add_term1_13_ a_i_add_term1_14_ a_i_add_term1_15_ a_i_add_term1_16_ a_i_add_term1_17_ a_i_add_term1_18_ a_i_add_term1_19_ a_i_add_term1_20_ a_i_add_term1_21_ a_i_add_term1_22_ a_i_add_term1_23_ a_i_add_term1_24_ a_i_add_term1_25_ a_i_add_term1_26_ a_i_add_term1_27_ a_i_add_term1_28_ a_i_add_term1_29_ a_i_add_term1_30_ a_i_add_term1_31_ a_i_add_term1_32_ a_i_add_term1_33_ a_i_add_term1_34_ a_i_add_term1_35_ a_i_add_term1_36_ a_i_add_term1_37_ a_i_add_term1_38_ a_i_add_term1_39_ a_i_add_term1_40_ a_i_add_term1_41_ a_i_add_term1_42_ a_i_add_term1_43_ a_i_add_term1_44_ a_i_add_term1_45_ a_i_add_term1_46_ a_i_add_term1_47_ a_i_add_term1_48_ a_i_add_term1_49_ a_i_add_term1_50_ a_i_add_term1_51_ a_i_add_term1_52_ a_i_add_term2_0_ a_i_add_term2_1_ a_i_add_term2_2_ a_i_add_term2_3_ a_i_add_term2_4_ a_i_add_term2_5_ a_i_add_term2_6_ a_i_add_term2_7_ a_i_add_term2_8_ a_i_add_term2_9_ a_i_add_term2_10_ a_i_add_term2_11_ a_i_add_term2_12_ a_i_add_term2_13_ a_i_add_term2_14_ a_i_add_term2_15_ a_i_add_term2_16_ a_i_add_term2_17_ a_i_add_term2_18_ a_i_add_term2_19_ a_i_add_term2_20_ a_i_add_term2_21_ a_i_add_term2_22_ a_i_add_term2_23_ a_i_add_term2_24_ a_i_add_term2_25_ a_i_add_term2_26_ a_i_add_term2_27_ a_i_add_term2_28_ a_i_add_term2_29_ a_i_add_term2_30_ a_i_add_term2_31_ a_i_add_term2_32_ a_i_add_term2_33_ a_i_add_term2_34_ a_i_add_term2_35_ a_i_add_term2_36_ a_i_add_term2_37_ a_i_add_term2_38_ a_i_add_term2_39_ a_i_add_term2_40_ a_i_add_term2_41_ a_i_add_term2_42_ a_i_add_term2_43_ a_i_add_term2_44_ a_i_add_term2_45_ a_i_add_term2_46_ a_i_add_term2_47_ a_i_add_term2_48_ a_i_add_term2_49_ a_i_add_term2_50_ a_i_add_term2_51_ a_i_add_term2_52_ a_sum_0_ a_sum_1_ a_sum_2_ a_sum_3_ a_sum_4_ a_sum_5_ a_sum_6_ a_sum_7_ a_sum_8_ a_sum_9_ a_sum_10_ a_sum_11_ a_sum_12_ a_sum_13_ a_sum_14_ a_sum_15_ a_sum_16_ a_sum_17_ a_sum_18_ a_sum_19_ a_sum_20_ a_sum_21_ a_sum_22_ a_sum_23_ a_sum_24_ a_sum_25_ a_sum_26_ a_sum_27_ a_sum_28_ a_sum_29_ a_sum_30_ a_sum_31_ a_sum_32_ a_sum_33_ a_sum_34_ a_sum_35_ a_sum_36_ a_sum_37_ a_sum_38_ a_sum_39_ a_sum_40_ a_sum_41_ a_sum_42_ a_sum_43_ a_sum_44_ a_sum_45_ a_sum_46_ a_sum_47_ a_sum_48_ a_sum_49_ a_sum_50_ a_sum_51_ a_sum_52_ a_cout
ANAND3X1_1 [_93_ _95_ _94_] _96_ d_lut_NAND3X1
ANOR2X1_1 [i_add_term2_7_ i_add_term1_7_] _90_ d_lut_NOR2X1
AAND2X2_1 [i_add_term2_7_ i_add_term1_7_] _91_ d_lut_AND2X2
AOAI21X1_1 [_90_ _91_ _5__3_] _92_ d_lut_OAI21X1
ANAND2X1_1 [_92_ _96_] _3__3_ d_lut_NAND2X1
AOAI21X1_2 [_93_ _90_ _95_] _1_ d_lut_OAI21X1
AINVX1_1 [_5__1_] _100_ d_lut_INVX1
AOR2X2_1 [i_add_term2_5_ i_add_term1_5_] _101_ d_lut_OR2X2
ANAND2X1_2 [i_add_term2_5_ i_add_term1_5_] _102_ d_lut_NAND2X1
ANAND3X1_2 [_100_ _102_ _101_] _103_ d_lut_NAND3X1
ANOR2X1_2 [i_add_term2_5_ i_add_term1_5_] _97_ d_lut_NOR2X1
AAND2X2_2 [i_add_term2_5_ i_add_term1_5_] _98_ d_lut_AND2X2
AOAI21X1_3 [_97_ _98_ _5__1_] _99_ d_lut_OAI21X1
ANAND2X1_3 [_99_ _103_] _3__1_ d_lut_NAND2X1
AOAI21X1_4 [_100_ _97_ _102_] _5__2_ d_lut_OAI21X1
AINVX1_2 [_5__2_] _107_ d_lut_INVX1
AOR2X2_2 [i_add_term2_6_ i_add_term1_6_] _108_ d_lut_OR2X2
ANAND2X1_4 [i_add_term2_6_ i_add_term1_6_] _109_ d_lut_NAND2X1
ANAND3X1_3 [_107_ _109_ _108_] _110_ d_lut_NAND3X1
ANOR2X1_3 [i_add_term2_6_ i_add_term1_6_] _104_ d_lut_NOR2X1
AAND2X2_3 [i_add_term2_6_ i_add_term1_6_] _105_ d_lut_AND2X2
AOAI21X1_5 [_104_ _105_ _5__2_] _106_ d_lut_OAI21X1
ANAND2X1_5 [_106_ _110_] _3__2_ d_lut_NAND2X1
AOAI21X1_6 [_107_ _104_ _109_] _5__3_ d_lut_OAI21X1
AINVX1_3 [vdd] _114_ d_lut_INVX1
AOR2X2_3 [i_add_term2_4_ i_add_term1_4_] _115_ d_lut_OR2X2
ANAND2X1_6 [i_add_term2_4_ i_add_term1_4_] _116_ d_lut_NAND2X1
ANAND3X1_4 [_114_ _116_ _115_] _117_ d_lut_NAND3X1
ANOR2X1_4 [i_add_term2_4_ i_add_term1_4_] _111_ d_lut_NOR2X1
AAND2X2_4 [i_add_term2_4_ i_add_term1_4_] _112_ d_lut_AND2X2
AOAI21X1_7 [_111_ _112_ vdd] _113_ d_lut_OAI21X1
ANAND2X1_7 [_113_ _117_] _4__0_ d_lut_NAND2X1
AOAI21X1_8 [_114_ _111_ _116_] _6__1_ d_lut_OAI21X1
AINVX1_4 [_6__3_] _121_ d_lut_INVX1
AOR2X2_4 [i_add_term2_7_ i_add_term1_7_] _122_ d_lut_OR2X2
ANAND2X1_8 [i_add_term2_7_ i_add_term1_7_] _123_ d_lut_NAND2X1
ANAND3X1_5 [_121_ _123_ _122_] _124_ d_lut_NAND3X1
ANOR2X1_5 [i_add_term2_7_ i_add_term1_7_] _118_ d_lut_NOR2X1
AAND2X2_5 [i_add_term2_7_ i_add_term1_7_] _119_ d_lut_AND2X2
AOAI21X1_9 [_118_ _119_ _6__3_] _120_ d_lut_OAI21X1
ANAND2X1_9 [_120_ _124_] _4__3_ d_lut_NAND2X1
AOAI21X1_10 [_121_ _118_ _123_] _2_ d_lut_OAI21X1
AINVX1_5 [_6__1_] _128_ d_lut_INVX1
AOR2X2_5 [i_add_term2_5_ i_add_term1_5_] _129_ d_lut_OR2X2
ANAND2X1_10 [i_add_term2_5_ i_add_term1_5_] _130_ d_lut_NAND2X1
ANAND3X1_6 [_128_ _130_ _129_] _131_ d_lut_NAND3X1
ANOR2X1_6 [i_add_term2_5_ i_add_term1_5_] _125_ d_lut_NOR2X1
AAND2X2_6 [i_add_term2_5_ i_add_term1_5_] _126_ d_lut_AND2X2
AOAI21X1_11 [_125_ _126_ _6__1_] _127_ d_lut_OAI21X1
ANAND2X1_11 [_127_ _131_] _4__1_ d_lut_NAND2X1
AOAI21X1_12 [_128_ _125_ _130_] _6__2_ d_lut_OAI21X1
AINVX1_6 [_6__2_] _135_ d_lut_INVX1
AOR2X2_6 [i_add_term2_6_ i_add_term1_6_] _136_ d_lut_OR2X2
ANAND2X1_12 [i_add_term2_6_ i_add_term1_6_] _137_ d_lut_NAND2X1
ANAND3X1_7 [_135_ _137_ _136_] _138_ d_lut_NAND3X1
ANOR2X1_7 [i_add_term2_6_ i_add_term1_6_] _132_ d_lut_NOR2X1
AAND2X2_7 [i_add_term2_6_ i_add_term1_6_] _133_ d_lut_AND2X2
AOAI21X1_13 [_132_ _133_ _6__2_] _134_ d_lut_OAI21X1
ANAND2X1_13 [_134_ _138_] _4__2_ d_lut_NAND2X1
AOAI21X1_14 [_135_ _132_ _137_] _6__3_ d_lut_OAI21X1
AINVX1_7 [_7_] _139_ d_lut_INVX1
ANAND2X1_14 [_8_ w_cout_1_] _140_ d_lut_NAND2X1
AOAI21X1_15 [w_cout_1_ _139_ _140_] w_cout_2_ d_lut_OAI21X1
AINVX1_8 [_9__0_] _141_ d_lut_INVX1
ANAND2X1_15 [_10__0_ w_cout_1_] _142_ d_lut_NAND2X1
AOAI21X1_16 [w_cout_1_ _141_ _142_] _0__8_ d_lut_OAI21X1
AINVX1_9 [_9__1_] _143_ d_lut_INVX1
ANAND2X1_16 [w_cout_1_ _10__1_] _144_ d_lut_NAND2X1
AOAI21X1_17 [w_cout_1_ _143_ _144_] _0__9_ d_lut_OAI21X1
AINVX1_10 [_9__2_] _145_ d_lut_INVX1
ANAND2X1_17 [w_cout_1_ _10__2_] _146_ d_lut_NAND2X1
AOAI21X1_18 [w_cout_1_ _145_ _146_] _0__10_ d_lut_OAI21X1
AINVX1_11 [_9__3_] _147_ d_lut_INVX1
ANAND2X1_18 [w_cout_1_ _10__3_] _148_ d_lut_NAND2X1
AOAI21X1_19 [w_cout_1_ _147_ _148_] _0__11_ d_lut_OAI21X1
AINVX1_12 [gnd] _152_ d_lut_INVX1
AOR2X2_7 [i_add_term2_8_ i_add_term1_8_] _153_ d_lut_OR2X2
ANAND2X1_19 [i_add_term2_8_ i_add_term1_8_] _154_ d_lut_NAND2X1
ANAND3X1_8 [_152_ _154_ _153_] _155_ d_lut_NAND3X1
ANOR2X1_8 [i_add_term2_8_ i_add_term1_8_] _149_ d_lut_NOR2X1
AAND2X2_8 [i_add_term2_8_ i_add_term1_8_] _150_ d_lut_AND2X2
AOAI21X1_20 [_149_ _150_ gnd] _151_ d_lut_OAI21X1
ANAND2X1_20 [_151_ _155_] _9__0_ d_lut_NAND2X1
AOAI21X1_21 [_152_ _149_ _154_] _11__1_ d_lut_OAI21X1
AINVX1_13 [_11__3_] _159_ d_lut_INVX1
AOR2X2_8 [i_add_term2_11_ i_add_term1_11_] _160_ d_lut_OR2X2
ANAND2X1_21 [i_add_term2_11_ i_add_term1_11_] _161_ d_lut_NAND2X1
ANAND3X1_9 [_159_ _161_ _160_] _162_ d_lut_NAND3X1
ANOR2X1_9 [i_add_term2_11_ i_add_term1_11_] _156_ d_lut_NOR2X1
AAND2X2_9 [i_add_term2_11_ i_add_term1_11_] _157_ d_lut_AND2X2
AOAI21X1_22 [_156_ _157_ _11__3_] _158_ d_lut_OAI21X1
ANAND2X1_22 [_158_ _162_] _9__3_ d_lut_NAND2X1
AOAI21X1_23 [_159_ _156_ _161_] _7_ d_lut_OAI21X1
AINVX1_14 [_11__1_] _166_ d_lut_INVX1
AOR2X2_9 [i_add_term2_9_ i_add_term1_9_] _167_ d_lut_OR2X2
ANAND2X1_23 [i_add_term2_9_ i_add_term1_9_] _168_ d_lut_NAND2X1
ANAND3X1_10 [_166_ _168_ _167_] _169_ d_lut_NAND3X1
ANOR2X1_10 [i_add_term2_9_ i_add_term1_9_] _163_ d_lut_NOR2X1
AAND2X2_10 [i_add_term2_9_ i_add_term1_9_] _164_ d_lut_AND2X2
AOAI21X1_24 [_163_ _164_ _11__1_] _165_ d_lut_OAI21X1
ANAND2X1_24 [_165_ _169_] _9__1_ d_lut_NAND2X1
AOAI21X1_25 [_166_ _163_ _168_] _11__2_ d_lut_OAI21X1
AINVX1_15 [_11__2_] _173_ d_lut_INVX1
AOR2X2_10 [i_add_term2_10_ i_add_term1_10_] _174_ d_lut_OR2X2
ANAND2X1_25 [i_add_term2_10_ i_add_term1_10_] _175_ d_lut_NAND2X1
ANAND3X1_11 [_173_ _175_ _174_] _176_ d_lut_NAND3X1
ANOR2X1_11 [i_add_term2_10_ i_add_term1_10_] _170_ d_lut_NOR2X1
AAND2X2_11 [i_add_term2_10_ i_add_term1_10_] _171_ d_lut_AND2X2
AOAI21X1_26 [_170_ _171_ _11__2_] _172_ d_lut_OAI21X1
ANAND2X1_26 [_172_ _176_] _9__2_ d_lut_NAND2X1
AOAI21X1_27 [_173_ _170_ _175_] _11__3_ d_lut_OAI21X1
AINVX1_16 [vdd] _180_ d_lut_INVX1
AOR2X2_11 [i_add_term2_8_ i_add_term1_8_] _181_ d_lut_OR2X2
ANAND2X1_27 [i_add_term2_8_ i_add_term1_8_] _182_ d_lut_NAND2X1
ANAND3X1_12 [_180_ _182_ _181_] _183_ d_lut_NAND3X1
ANOR2X1_12 [i_add_term2_8_ i_add_term1_8_] _177_ d_lut_NOR2X1
AAND2X2_12 [i_add_term2_8_ i_add_term1_8_] _178_ d_lut_AND2X2
AOAI21X1_28 [_177_ _178_ vdd] _179_ d_lut_OAI21X1
ANAND2X1_28 [_179_ _183_] _10__0_ d_lut_NAND2X1
AOAI21X1_29 [_180_ _177_ _182_] _12__1_ d_lut_OAI21X1
AINVX1_17 [_12__3_] _187_ d_lut_INVX1
AOR2X2_12 [i_add_term2_11_ i_add_term1_11_] _188_ d_lut_OR2X2
ANAND2X1_29 [i_add_term2_11_ i_add_term1_11_] _189_ d_lut_NAND2X1
ANAND3X1_13 [_187_ _189_ _188_] _190_ d_lut_NAND3X1
ANOR2X1_13 [i_add_term2_11_ i_add_term1_11_] _184_ d_lut_NOR2X1
AAND2X2_13 [i_add_term2_11_ i_add_term1_11_] _185_ d_lut_AND2X2
AOAI21X1_30 [_184_ _185_ _12__3_] _186_ d_lut_OAI21X1
ANAND2X1_30 [_186_ _190_] _10__3_ d_lut_NAND2X1
AOAI21X1_31 [_187_ _184_ _189_] _8_ d_lut_OAI21X1
AINVX1_18 [_12__1_] _194_ d_lut_INVX1
AOR2X2_13 [i_add_term2_9_ i_add_term1_9_] _195_ d_lut_OR2X2
ANAND2X1_31 [i_add_term2_9_ i_add_term1_9_] _196_ d_lut_NAND2X1
ANAND3X1_14 [_194_ _196_ _195_] _197_ d_lut_NAND3X1
ANOR2X1_14 [i_add_term2_9_ i_add_term1_9_] _191_ d_lut_NOR2X1
AAND2X2_14 [i_add_term2_9_ i_add_term1_9_] _192_ d_lut_AND2X2
AOAI21X1_32 [_191_ _192_ _12__1_] _193_ d_lut_OAI21X1
ANAND2X1_32 [_193_ _197_] _10__1_ d_lut_NAND2X1
AOAI21X1_33 [_194_ _191_ _196_] _12__2_ d_lut_OAI21X1
AINVX1_19 [_12__2_] _201_ d_lut_INVX1
AOR2X2_14 [i_add_term2_10_ i_add_term1_10_] _202_ d_lut_OR2X2
ANAND2X1_33 [i_add_term2_10_ i_add_term1_10_] _203_ d_lut_NAND2X1
ANAND3X1_15 [_201_ _203_ _202_] _204_ d_lut_NAND3X1
ANOR2X1_15 [i_add_term2_10_ i_add_term1_10_] _198_ d_lut_NOR2X1
AAND2X2_15 [i_add_term2_10_ i_add_term1_10_] _199_ d_lut_AND2X2
AOAI21X1_34 [_198_ _199_ _12__2_] _200_ d_lut_OAI21X1
ANAND2X1_34 [_200_ _204_] _10__2_ d_lut_NAND2X1
AOAI21X1_35 [_201_ _198_ _203_] _12__3_ d_lut_OAI21X1
AINVX1_20 [_13_] _205_ d_lut_INVX1
ANAND2X1_35 [_14_ w_cout_2_] _206_ d_lut_NAND2X1
AOAI21X1_36 [w_cout_2_ _205_ _206_] w_cout_3_ d_lut_OAI21X1
AINVX1_21 [_15__0_] _207_ d_lut_INVX1
ANAND2X1_36 [_16__0_ w_cout_2_] _208_ d_lut_NAND2X1
AOAI21X1_37 [w_cout_2_ _207_ _208_] _0__12_ d_lut_OAI21X1
AINVX1_22 [_15__1_] _209_ d_lut_INVX1
ANAND2X1_37 [w_cout_2_ _16__1_] _210_ d_lut_NAND2X1
AOAI21X1_38 [w_cout_2_ _209_ _210_] _0__13_ d_lut_OAI21X1
AINVX1_23 [_15__2_] _211_ d_lut_INVX1
ANAND2X1_38 [w_cout_2_ _16__2_] _212_ d_lut_NAND2X1
AOAI21X1_39 [w_cout_2_ _211_ _212_] _0__14_ d_lut_OAI21X1
AINVX1_24 [_15__3_] _213_ d_lut_INVX1
ANAND2X1_39 [w_cout_2_ _16__3_] _214_ d_lut_NAND2X1
AOAI21X1_40 [w_cout_2_ _213_ _214_] _0__15_ d_lut_OAI21X1
AINVX1_25 [gnd] _218_ d_lut_INVX1
AOR2X2_15 [i_add_term2_12_ i_add_term1_12_] _219_ d_lut_OR2X2
ANAND2X1_40 [i_add_term2_12_ i_add_term1_12_] _220_ d_lut_NAND2X1
ANAND3X1_16 [_218_ _220_ _219_] _221_ d_lut_NAND3X1
ANOR2X1_16 [i_add_term2_12_ i_add_term1_12_] _215_ d_lut_NOR2X1
AAND2X2_16 [i_add_term2_12_ i_add_term1_12_] _216_ d_lut_AND2X2
AOAI21X1_41 [_215_ _216_ gnd] _217_ d_lut_OAI21X1
ANAND2X1_41 [_217_ _221_] _15__0_ d_lut_NAND2X1
AOAI21X1_42 [_218_ _215_ _220_] _17__1_ d_lut_OAI21X1
AINVX1_26 [_17__3_] _225_ d_lut_INVX1
AOR2X2_16 [i_add_term2_15_ i_add_term1_15_] _226_ d_lut_OR2X2
ANAND2X1_42 [i_add_term2_15_ i_add_term1_15_] _227_ d_lut_NAND2X1
ANAND3X1_17 [_225_ _227_ _226_] _228_ d_lut_NAND3X1
ANOR2X1_17 [i_add_term2_15_ i_add_term1_15_] _222_ d_lut_NOR2X1
AAND2X2_17 [i_add_term2_15_ i_add_term1_15_] _223_ d_lut_AND2X2
AOAI21X1_43 [_222_ _223_ _17__3_] _224_ d_lut_OAI21X1
ANAND2X1_43 [_224_ _228_] _15__3_ d_lut_NAND2X1
AOAI21X1_44 [_225_ _222_ _227_] _13_ d_lut_OAI21X1
AINVX1_27 [_17__1_] _232_ d_lut_INVX1
AOR2X2_17 [i_add_term2_13_ i_add_term1_13_] _233_ d_lut_OR2X2
ANAND2X1_44 [i_add_term2_13_ i_add_term1_13_] _234_ d_lut_NAND2X1
ANAND3X1_18 [_232_ _234_ _233_] _235_ d_lut_NAND3X1
ANOR2X1_18 [i_add_term2_13_ i_add_term1_13_] _229_ d_lut_NOR2X1
AAND2X2_18 [i_add_term2_13_ i_add_term1_13_] _230_ d_lut_AND2X2
AOAI21X1_45 [_229_ _230_ _17__1_] _231_ d_lut_OAI21X1
ANAND2X1_45 [_231_ _235_] _15__1_ d_lut_NAND2X1
AOAI21X1_46 [_232_ _229_ _234_] _17__2_ d_lut_OAI21X1
AINVX1_28 [_17__2_] _239_ d_lut_INVX1
AOR2X2_18 [i_add_term2_14_ i_add_term1_14_] _240_ d_lut_OR2X2
ANAND2X1_46 [i_add_term2_14_ i_add_term1_14_] _241_ d_lut_NAND2X1
ANAND3X1_19 [_239_ _241_ _240_] _242_ d_lut_NAND3X1
ANOR2X1_19 [i_add_term2_14_ i_add_term1_14_] _236_ d_lut_NOR2X1
AAND2X2_19 [i_add_term2_14_ i_add_term1_14_] _237_ d_lut_AND2X2
AOAI21X1_47 [_236_ _237_ _17__2_] _238_ d_lut_OAI21X1
ANAND2X1_47 [_238_ _242_] _15__2_ d_lut_NAND2X1
AOAI21X1_48 [_239_ _236_ _241_] _17__3_ d_lut_OAI21X1
AINVX1_29 [vdd] _246_ d_lut_INVX1
AOR2X2_19 [i_add_term2_12_ i_add_term1_12_] _247_ d_lut_OR2X2
ANAND2X1_48 [i_add_term2_12_ i_add_term1_12_] _248_ d_lut_NAND2X1
ANAND3X1_20 [_246_ _248_ _247_] _249_ d_lut_NAND3X1
ANOR2X1_20 [i_add_term2_12_ i_add_term1_12_] _243_ d_lut_NOR2X1
AAND2X2_20 [i_add_term2_12_ i_add_term1_12_] _244_ d_lut_AND2X2
AOAI21X1_49 [_243_ _244_ vdd] _245_ d_lut_OAI21X1
ANAND2X1_49 [_245_ _249_] _16__0_ d_lut_NAND2X1
AOAI21X1_50 [_246_ _243_ _248_] _18__1_ d_lut_OAI21X1
AINVX1_30 [_18__3_] _253_ d_lut_INVX1
AOR2X2_20 [i_add_term2_15_ i_add_term1_15_] _254_ d_lut_OR2X2
ANAND2X1_50 [i_add_term2_15_ i_add_term1_15_] _255_ d_lut_NAND2X1
ANAND3X1_21 [_253_ _255_ _254_] _256_ d_lut_NAND3X1
ANOR2X1_21 [i_add_term2_15_ i_add_term1_15_] _250_ d_lut_NOR2X1
AAND2X2_21 [i_add_term2_15_ i_add_term1_15_] _251_ d_lut_AND2X2
AOAI21X1_51 [_250_ _251_ _18__3_] _252_ d_lut_OAI21X1
ANAND2X1_51 [_252_ _256_] _16__3_ d_lut_NAND2X1
AOAI21X1_52 [_253_ _250_ _255_] _14_ d_lut_OAI21X1
AINVX1_31 [_18__1_] _260_ d_lut_INVX1
AOR2X2_21 [i_add_term2_13_ i_add_term1_13_] _261_ d_lut_OR2X2
ANAND2X1_52 [i_add_term2_13_ i_add_term1_13_] _262_ d_lut_NAND2X1
ANAND3X1_22 [_260_ _262_ _261_] _263_ d_lut_NAND3X1
ANOR2X1_22 [i_add_term2_13_ i_add_term1_13_] _257_ d_lut_NOR2X1
AAND2X2_22 [i_add_term2_13_ i_add_term1_13_] _258_ d_lut_AND2X2
AOAI21X1_53 [_257_ _258_ _18__1_] _259_ d_lut_OAI21X1
ANAND2X1_53 [_259_ _263_] _16__1_ d_lut_NAND2X1
AOAI21X1_54 [_260_ _257_ _262_] _18__2_ d_lut_OAI21X1
AINVX1_32 [_18__2_] _267_ d_lut_INVX1
AOR2X2_22 [i_add_term2_14_ i_add_term1_14_] _268_ d_lut_OR2X2
ANAND2X1_54 [i_add_term2_14_ i_add_term1_14_] _269_ d_lut_NAND2X1
ANAND3X1_23 [_267_ _269_ _268_] _270_ d_lut_NAND3X1
ANOR2X1_23 [i_add_term2_14_ i_add_term1_14_] _264_ d_lut_NOR2X1
AAND2X2_23 [i_add_term2_14_ i_add_term1_14_] _265_ d_lut_AND2X2
AOAI21X1_55 [_264_ _265_ _18__2_] _266_ d_lut_OAI21X1
ANAND2X1_55 [_266_ _270_] _16__2_ d_lut_NAND2X1
AOAI21X1_56 [_267_ _264_ _269_] _18__3_ d_lut_OAI21X1
AINVX1_33 [_19_] _271_ d_lut_INVX1
ANAND2X1_56 [_20_ w_cout_3_] _272_ d_lut_NAND2X1
AOAI21X1_57 [w_cout_3_ _271_ _272_] w_cout_4_ d_lut_OAI21X1
AINVX1_34 [_21__0_] _273_ d_lut_INVX1
ANAND2X1_57 [_22__0_ w_cout_3_] _274_ d_lut_NAND2X1
AOAI21X1_58 [w_cout_3_ _273_ _274_] _0__16_ d_lut_OAI21X1
AINVX1_35 [_21__1_] _275_ d_lut_INVX1
ANAND2X1_58 [w_cout_3_ _22__1_] _276_ d_lut_NAND2X1
AOAI21X1_59 [w_cout_3_ _275_ _276_] _0__17_ d_lut_OAI21X1
AINVX1_36 [_21__2_] _277_ d_lut_INVX1
ANAND2X1_59 [w_cout_3_ _22__2_] _278_ d_lut_NAND2X1
AOAI21X1_60 [w_cout_3_ _277_ _278_] _0__18_ d_lut_OAI21X1
AINVX1_37 [_21__3_] _279_ d_lut_INVX1
ANAND2X1_60 [w_cout_3_ _22__3_] _280_ d_lut_NAND2X1
AOAI21X1_61 [w_cout_3_ _279_ _280_] _0__19_ d_lut_OAI21X1
AINVX1_38 [gnd] _284_ d_lut_INVX1
AOR2X2_23 [i_add_term2_16_ i_add_term1_16_] _285_ d_lut_OR2X2
ANAND2X1_61 [i_add_term2_16_ i_add_term1_16_] _286_ d_lut_NAND2X1
ANAND3X1_24 [_284_ _286_ _285_] _287_ d_lut_NAND3X1
ANOR2X1_24 [i_add_term2_16_ i_add_term1_16_] _281_ d_lut_NOR2X1
AAND2X2_24 [i_add_term2_16_ i_add_term1_16_] _282_ d_lut_AND2X2
AOAI21X1_62 [_281_ _282_ gnd] _283_ d_lut_OAI21X1
ANAND2X1_62 [_283_ _287_] _21__0_ d_lut_NAND2X1
AOAI21X1_63 [_284_ _281_ _286_] _23__1_ d_lut_OAI21X1
AINVX1_39 [_23__3_] _291_ d_lut_INVX1
AOR2X2_24 [i_add_term2_19_ i_add_term1_19_] _292_ d_lut_OR2X2
ANAND2X1_63 [i_add_term2_19_ i_add_term1_19_] _293_ d_lut_NAND2X1
ANAND3X1_25 [_291_ _293_ _292_] _294_ d_lut_NAND3X1
ANOR2X1_25 [i_add_term2_19_ i_add_term1_19_] _288_ d_lut_NOR2X1
AAND2X2_25 [i_add_term2_19_ i_add_term1_19_] _289_ d_lut_AND2X2
AOAI21X1_64 [_288_ _289_ _23__3_] _290_ d_lut_OAI21X1
ANAND2X1_64 [_290_ _294_] _21__3_ d_lut_NAND2X1
AOAI21X1_65 [_291_ _288_ _293_] _19_ d_lut_OAI21X1
AINVX1_40 [_23__1_] _298_ d_lut_INVX1
AOR2X2_25 [i_add_term2_17_ i_add_term1_17_] _299_ d_lut_OR2X2
ANAND2X1_65 [i_add_term2_17_ i_add_term1_17_] _300_ d_lut_NAND2X1
ANAND3X1_26 [_298_ _300_ _299_] _301_ d_lut_NAND3X1
ANOR2X1_26 [i_add_term2_17_ i_add_term1_17_] _295_ d_lut_NOR2X1
AAND2X2_26 [i_add_term2_17_ i_add_term1_17_] _296_ d_lut_AND2X2
AOAI21X1_66 [_295_ _296_ _23__1_] _297_ d_lut_OAI21X1
ANAND2X1_66 [_297_ _301_] _21__1_ d_lut_NAND2X1
AOAI21X1_67 [_298_ _295_ _300_] _23__2_ d_lut_OAI21X1
AINVX1_41 [_23__2_] _305_ d_lut_INVX1
AOR2X2_26 [i_add_term2_18_ i_add_term1_18_] _306_ d_lut_OR2X2
ANAND2X1_67 [i_add_term2_18_ i_add_term1_18_] _307_ d_lut_NAND2X1
ANAND3X1_27 [_305_ _307_ _306_] _308_ d_lut_NAND3X1
ANOR2X1_27 [i_add_term2_18_ i_add_term1_18_] _302_ d_lut_NOR2X1
AAND2X2_27 [i_add_term2_18_ i_add_term1_18_] _303_ d_lut_AND2X2
AOAI21X1_68 [_302_ _303_ _23__2_] _304_ d_lut_OAI21X1
ANAND2X1_68 [_304_ _308_] _21__2_ d_lut_NAND2X1
AOAI21X1_69 [_305_ _302_ _307_] _23__3_ d_lut_OAI21X1
AINVX1_42 [vdd] _312_ d_lut_INVX1
AOR2X2_27 [i_add_term2_16_ i_add_term1_16_] _313_ d_lut_OR2X2
ANAND2X1_69 [i_add_term2_16_ i_add_term1_16_] _314_ d_lut_NAND2X1
ANAND3X1_28 [_312_ _314_ _313_] _315_ d_lut_NAND3X1
ANOR2X1_28 [i_add_term2_16_ i_add_term1_16_] _309_ d_lut_NOR2X1
AAND2X2_28 [i_add_term2_16_ i_add_term1_16_] _310_ d_lut_AND2X2
AOAI21X1_70 [_309_ _310_ vdd] _311_ d_lut_OAI21X1
ANAND2X1_70 [_311_ _315_] _22__0_ d_lut_NAND2X1
AOAI21X1_71 [_312_ _309_ _314_] _24__1_ d_lut_OAI21X1
AINVX1_43 [_24__3_] _319_ d_lut_INVX1
AOR2X2_28 [i_add_term2_19_ i_add_term1_19_] _320_ d_lut_OR2X2
ANAND2X1_71 [i_add_term2_19_ i_add_term1_19_] _321_ d_lut_NAND2X1
ANAND3X1_29 [_319_ _321_ _320_] _322_ d_lut_NAND3X1
ANOR2X1_29 [i_add_term2_19_ i_add_term1_19_] _316_ d_lut_NOR2X1
AAND2X2_29 [i_add_term2_19_ i_add_term1_19_] _317_ d_lut_AND2X2
AOAI21X1_72 [_316_ _317_ _24__3_] _318_ d_lut_OAI21X1
ANAND2X1_72 [_318_ _322_] _22__3_ d_lut_NAND2X1
AOAI21X1_73 [_319_ _316_ _321_] _20_ d_lut_OAI21X1
AINVX1_44 [_24__1_] _326_ d_lut_INVX1
AOR2X2_29 [i_add_term2_17_ i_add_term1_17_] _327_ d_lut_OR2X2
ANAND2X1_73 [i_add_term2_17_ i_add_term1_17_] _328_ d_lut_NAND2X1
ANAND3X1_30 [_326_ _328_ _327_] _329_ d_lut_NAND3X1
ANOR2X1_30 [i_add_term2_17_ i_add_term1_17_] _323_ d_lut_NOR2X1
AAND2X2_30 [i_add_term2_17_ i_add_term1_17_] _324_ d_lut_AND2X2
AOAI21X1_74 [_323_ _324_ _24__1_] _325_ d_lut_OAI21X1
ANAND2X1_74 [_325_ _329_] _22__1_ d_lut_NAND2X1
AOAI21X1_75 [_326_ _323_ _328_] _24__2_ d_lut_OAI21X1
AINVX1_45 [_24__2_] _333_ d_lut_INVX1
AOR2X2_30 [i_add_term2_18_ i_add_term1_18_] _334_ d_lut_OR2X2
ANAND2X1_75 [i_add_term2_18_ i_add_term1_18_] _335_ d_lut_NAND2X1
ANAND3X1_31 [_333_ _335_ _334_] _336_ d_lut_NAND3X1
ANOR2X1_31 [i_add_term2_18_ i_add_term1_18_] _330_ d_lut_NOR2X1
AAND2X2_31 [i_add_term2_18_ i_add_term1_18_] _331_ d_lut_AND2X2
AOAI21X1_76 [_330_ _331_ _24__2_] _332_ d_lut_OAI21X1
ANAND2X1_76 [_332_ _336_] _22__2_ d_lut_NAND2X1
AOAI21X1_77 [_333_ _330_ _335_] _24__3_ d_lut_OAI21X1
AINVX1_46 [_25_] _337_ d_lut_INVX1
ANAND2X1_77 [_26_ w_cout_4_] _338_ d_lut_NAND2X1
AOAI21X1_78 [w_cout_4_ _337_ _338_] w_cout_5_ d_lut_OAI21X1
AINVX1_47 [_27__0_] _339_ d_lut_INVX1
ANAND2X1_78 [_28__0_ w_cout_4_] _340_ d_lut_NAND2X1
AOAI21X1_79 [w_cout_4_ _339_ _340_] _0__20_ d_lut_OAI21X1
AINVX1_48 [_27__1_] _341_ d_lut_INVX1
ANAND2X1_79 [w_cout_4_ _28__1_] _342_ d_lut_NAND2X1
AOAI21X1_80 [w_cout_4_ _341_ _342_] _0__21_ d_lut_OAI21X1
AINVX1_49 [_27__2_] _343_ d_lut_INVX1
ANAND2X1_80 [w_cout_4_ _28__2_] _344_ d_lut_NAND2X1
AOAI21X1_81 [w_cout_4_ _343_ _344_] _0__22_ d_lut_OAI21X1
AINVX1_50 [_27__3_] _345_ d_lut_INVX1
ANAND2X1_81 [w_cout_4_ _28__3_] _346_ d_lut_NAND2X1
AOAI21X1_82 [w_cout_4_ _345_ _346_] _0__23_ d_lut_OAI21X1
AINVX1_51 [gnd] _350_ d_lut_INVX1
AOR2X2_31 [i_add_term2_20_ i_add_term1_20_] _351_ d_lut_OR2X2
ANAND2X1_82 [i_add_term2_20_ i_add_term1_20_] _352_ d_lut_NAND2X1
ANAND3X1_32 [_350_ _352_ _351_] _353_ d_lut_NAND3X1
ANOR2X1_32 [i_add_term2_20_ i_add_term1_20_] _347_ d_lut_NOR2X1
AAND2X2_32 [i_add_term2_20_ i_add_term1_20_] _348_ d_lut_AND2X2
AOAI21X1_83 [_347_ _348_ gnd] _349_ d_lut_OAI21X1
ANAND2X1_83 [_349_ _353_] _27__0_ d_lut_NAND2X1
AOAI21X1_84 [_350_ _347_ _352_] _29__1_ d_lut_OAI21X1
AINVX1_52 [_29__3_] _357_ d_lut_INVX1
AOR2X2_32 [i_add_term2_23_ i_add_term1_23_] _358_ d_lut_OR2X2
ANAND2X1_84 [i_add_term2_23_ i_add_term1_23_] _359_ d_lut_NAND2X1
ANAND3X1_33 [_357_ _359_ _358_] _360_ d_lut_NAND3X1
ANOR2X1_33 [i_add_term2_23_ i_add_term1_23_] _354_ d_lut_NOR2X1
AAND2X2_33 [i_add_term2_23_ i_add_term1_23_] _355_ d_lut_AND2X2
AOAI21X1_85 [_354_ _355_ _29__3_] _356_ d_lut_OAI21X1
ANAND2X1_85 [_356_ _360_] _27__3_ d_lut_NAND2X1
AOAI21X1_86 [_357_ _354_ _359_] _25_ d_lut_OAI21X1
AINVX1_53 [_29__1_] _364_ d_lut_INVX1
AOR2X2_33 [i_add_term2_21_ i_add_term1_21_] _365_ d_lut_OR2X2
ANAND2X1_86 [i_add_term2_21_ i_add_term1_21_] _366_ d_lut_NAND2X1
ANAND3X1_34 [_364_ _366_ _365_] _367_ d_lut_NAND3X1
ANOR2X1_34 [i_add_term2_21_ i_add_term1_21_] _361_ d_lut_NOR2X1
AAND2X2_34 [i_add_term2_21_ i_add_term1_21_] _362_ d_lut_AND2X2
AOAI21X1_87 [_361_ _362_ _29__1_] _363_ d_lut_OAI21X1
ANAND2X1_87 [_363_ _367_] _27__1_ d_lut_NAND2X1
AOAI21X1_88 [_364_ _361_ _366_] _29__2_ d_lut_OAI21X1
AINVX1_54 [_29__2_] _371_ d_lut_INVX1
AOR2X2_34 [i_add_term2_22_ i_add_term1_22_] _372_ d_lut_OR2X2
ANAND2X1_88 [i_add_term2_22_ i_add_term1_22_] _373_ d_lut_NAND2X1
ANAND3X1_35 [_371_ _373_ _372_] _374_ d_lut_NAND3X1
ANOR2X1_35 [i_add_term2_22_ i_add_term1_22_] _368_ d_lut_NOR2X1
AAND2X2_35 [i_add_term2_22_ i_add_term1_22_] _369_ d_lut_AND2X2
AOAI21X1_89 [_368_ _369_ _29__2_] _370_ d_lut_OAI21X1
ANAND2X1_89 [_370_ _374_] _27__2_ d_lut_NAND2X1
AOAI21X1_90 [_371_ _368_ _373_] _29__3_ d_lut_OAI21X1
AINVX1_55 [vdd] _378_ d_lut_INVX1
AOR2X2_35 [i_add_term2_20_ i_add_term1_20_] _379_ d_lut_OR2X2
ANAND2X1_90 [i_add_term2_20_ i_add_term1_20_] _380_ d_lut_NAND2X1
ANAND3X1_36 [_378_ _380_ _379_] _381_ d_lut_NAND3X1
ANOR2X1_36 [i_add_term2_20_ i_add_term1_20_] _375_ d_lut_NOR2X1
AAND2X2_36 [i_add_term2_20_ i_add_term1_20_] _376_ d_lut_AND2X2
AOAI21X1_91 [_375_ _376_ vdd] _377_ d_lut_OAI21X1
ANAND2X1_91 [_377_ _381_] _28__0_ d_lut_NAND2X1
AOAI21X1_92 [_378_ _375_ _380_] _30__1_ d_lut_OAI21X1
AINVX1_56 [_30__3_] _385_ d_lut_INVX1
AOR2X2_36 [i_add_term2_23_ i_add_term1_23_] _386_ d_lut_OR2X2
ANAND2X1_92 [i_add_term2_23_ i_add_term1_23_] _387_ d_lut_NAND2X1
ANAND3X1_37 [_385_ _387_ _386_] _388_ d_lut_NAND3X1
ANOR2X1_37 [i_add_term2_23_ i_add_term1_23_] _382_ d_lut_NOR2X1
AAND2X2_37 [i_add_term2_23_ i_add_term1_23_] _383_ d_lut_AND2X2
AOAI21X1_93 [_382_ _383_ _30__3_] _384_ d_lut_OAI21X1
ANAND2X1_93 [_384_ _388_] _28__3_ d_lut_NAND2X1
AOAI21X1_94 [_385_ _382_ _387_] _26_ d_lut_OAI21X1
AINVX1_57 [_30__1_] _392_ d_lut_INVX1
AOR2X2_37 [i_add_term2_21_ i_add_term1_21_] _393_ d_lut_OR2X2
ANAND2X1_94 [i_add_term2_21_ i_add_term1_21_] _394_ d_lut_NAND2X1
ANAND3X1_38 [_392_ _394_ _393_] _395_ d_lut_NAND3X1
ANOR2X1_38 [i_add_term2_21_ i_add_term1_21_] _389_ d_lut_NOR2X1
AAND2X2_38 [i_add_term2_21_ i_add_term1_21_] _390_ d_lut_AND2X2
AOAI21X1_95 [_389_ _390_ _30__1_] _391_ d_lut_OAI21X1
ANAND2X1_95 [_391_ _395_] _28__1_ d_lut_NAND2X1
AOAI21X1_96 [_392_ _389_ _394_] _30__2_ d_lut_OAI21X1
AINVX1_58 [_30__2_] _399_ d_lut_INVX1
AOR2X2_38 [i_add_term2_22_ i_add_term1_22_] _400_ d_lut_OR2X2
ANAND2X1_96 [i_add_term2_22_ i_add_term1_22_] _401_ d_lut_NAND2X1
ANAND3X1_39 [_399_ _401_ _400_] _402_ d_lut_NAND3X1
ANOR2X1_39 [i_add_term2_22_ i_add_term1_22_] _396_ d_lut_NOR2X1
AAND2X2_39 [i_add_term2_22_ i_add_term1_22_] _397_ d_lut_AND2X2
AOAI21X1_97 [_396_ _397_ _30__2_] _398_ d_lut_OAI21X1
ANAND2X1_97 [_398_ _402_] _28__2_ d_lut_NAND2X1
AOAI21X1_98 [_399_ _396_ _401_] _30__3_ d_lut_OAI21X1
AINVX1_59 [_31_] _403_ d_lut_INVX1
ANAND2X1_98 [_32_ w_cout_5_] _404_ d_lut_NAND2X1
AOAI21X1_99 [w_cout_5_ _403_ _404_] w_cout_6_ d_lut_OAI21X1
AINVX1_60 [_33__0_] _405_ d_lut_INVX1
ANAND2X1_99 [_34__0_ w_cout_5_] _406_ d_lut_NAND2X1
AOAI21X1_100 [w_cout_5_ _405_ _406_] _0__24_ d_lut_OAI21X1
AINVX1_61 [_33__1_] _407_ d_lut_INVX1
ANAND2X1_100 [w_cout_5_ _34__1_] _408_ d_lut_NAND2X1
AOAI21X1_101 [w_cout_5_ _407_ _408_] _0__25_ d_lut_OAI21X1
AINVX1_62 [_33__2_] _409_ d_lut_INVX1
ANAND2X1_101 [w_cout_5_ _34__2_] _410_ d_lut_NAND2X1
AOAI21X1_102 [w_cout_5_ _409_ _410_] _0__26_ d_lut_OAI21X1
AINVX1_63 [_33__3_] _411_ d_lut_INVX1
ANAND2X1_102 [w_cout_5_ _34__3_] _412_ d_lut_NAND2X1
AOAI21X1_103 [w_cout_5_ _411_ _412_] _0__27_ d_lut_OAI21X1
AINVX1_64 [gnd] _416_ d_lut_INVX1
AOR2X2_39 [i_add_term2_24_ i_add_term1_24_] _417_ d_lut_OR2X2
ANAND2X1_103 [i_add_term2_24_ i_add_term1_24_] _418_ d_lut_NAND2X1
ANAND3X1_40 [_416_ _418_ _417_] _419_ d_lut_NAND3X1
ANOR2X1_40 [i_add_term2_24_ i_add_term1_24_] _413_ d_lut_NOR2X1
AAND2X2_40 [i_add_term2_24_ i_add_term1_24_] _414_ d_lut_AND2X2
AOAI21X1_104 [_413_ _414_ gnd] _415_ d_lut_OAI21X1
ANAND2X1_104 [_415_ _419_] _33__0_ d_lut_NAND2X1
AOAI21X1_105 [_416_ _413_ _418_] _35__1_ d_lut_OAI21X1
AINVX1_65 [_35__3_] _423_ d_lut_INVX1
AOR2X2_40 [i_add_term2_27_ i_add_term1_27_] _424_ d_lut_OR2X2
ANAND2X1_105 [i_add_term2_27_ i_add_term1_27_] _425_ d_lut_NAND2X1
ANAND3X1_41 [_423_ _425_ _424_] _426_ d_lut_NAND3X1
ANOR2X1_41 [i_add_term2_27_ i_add_term1_27_] _420_ d_lut_NOR2X1
AAND2X2_41 [i_add_term2_27_ i_add_term1_27_] _421_ d_lut_AND2X2
AOAI21X1_106 [_420_ _421_ _35__3_] _422_ d_lut_OAI21X1
ANAND2X1_106 [_422_ _426_] _33__3_ d_lut_NAND2X1
AOAI21X1_107 [_423_ _420_ _425_] _31_ d_lut_OAI21X1
AINVX1_66 [_35__1_] _430_ d_lut_INVX1
AOR2X2_41 [i_add_term2_25_ i_add_term1_25_] _431_ d_lut_OR2X2
ANAND2X1_107 [i_add_term2_25_ i_add_term1_25_] _432_ d_lut_NAND2X1
ANAND3X1_42 [_430_ _432_ _431_] _433_ d_lut_NAND3X1
ANOR2X1_42 [i_add_term2_25_ i_add_term1_25_] _427_ d_lut_NOR2X1
AAND2X2_42 [i_add_term2_25_ i_add_term1_25_] _428_ d_lut_AND2X2
AOAI21X1_108 [_427_ _428_ _35__1_] _429_ d_lut_OAI21X1
ANAND2X1_108 [_429_ _433_] _33__1_ d_lut_NAND2X1
AOAI21X1_109 [_430_ _427_ _432_] _35__2_ d_lut_OAI21X1
AINVX1_67 [_35__2_] _437_ d_lut_INVX1
AOR2X2_42 [i_add_term2_26_ i_add_term1_26_] _438_ d_lut_OR2X2
ANAND2X1_109 [i_add_term2_26_ i_add_term1_26_] _439_ d_lut_NAND2X1
ANAND3X1_43 [_437_ _439_ _438_] _440_ d_lut_NAND3X1
ANOR2X1_43 [i_add_term2_26_ i_add_term1_26_] _434_ d_lut_NOR2X1
AAND2X2_43 [i_add_term2_26_ i_add_term1_26_] _435_ d_lut_AND2X2
AOAI21X1_110 [_434_ _435_ _35__2_] _436_ d_lut_OAI21X1
ANAND2X1_110 [_436_ _440_] _33__2_ d_lut_NAND2X1
AOAI21X1_111 [_437_ _434_ _439_] _35__3_ d_lut_OAI21X1
AINVX1_68 [vdd] _444_ d_lut_INVX1
AOR2X2_43 [i_add_term2_24_ i_add_term1_24_] _445_ d_lut_OR2X2
ANAND2X1_111 [i_add_term2_24_ i_add_term1_24_] _446_ d_lut_NAND2X1
ANAND3X1_44 [_444_ _446_ _445_] _447_ d_lut_NAND3X1
ANOR2X1_44 [i_add_term2_24_ i_add_term1_24_] _441_ d_lut_NOR2X1
AAND2X2_44 [i_add_term2_24_ i_add_term1_24_] _442_ d_lut_AND2X2
AOAI21X1_112 [_441_ _442_ vdd] _443_ d_lut_OAI21X1
ANAND2X1_112 [_443_ _447_] _34__0_ d_lut_NAND2X1
AOAI21X1_113 [_444_ _441_ _446_] _36__1_ d_lut_OAI21X1
AINVX1_69 [_36__3_] _451_ d_lut_INVX1
AOR2X2_44 [i_add_term2_27_ i_add_term1_27_] _452_ d_lut_OR2X2
ANAND2X1_113 [i_add_term2_27_ i_add_term1_27_] _453_ d_lut_NAND2X1
ANAND3X1_45 [_451_ _453_ _452_] _454_ d_lut_NAND3X1
ANOR2X1_45 [i_add_term2_27_ i_add_term1_27_] _448_ d_lut_NOR2X1
AAND2X2_45 [i_add_term2_27_ i_add_term1_27_] _449_ d_lut_AND2X2
AOAI21X1_114 [_448_ _449_ _36__3_] _450_ d_lut_OAI21X1
ANAND2X1_114 [_450_ _454_] _34__3_ d_lut_NAND2X1
AOAI21X1_115 [_451_ _448_ _453_] _32_ d_lut_OAI21X1
AINVX1_70 [_36__1_] _458_ d_lut_INVX1
AOR2X2_45 [i_add_term2_25_ i_add_term1_25_] _459_ d_lut_OR2X2
ANAND2X1_115 [i_add_term2_25_ i_add_term1_25_] _460_ d_lut_NAND2X1
ANAND3X1_46 [_458_ _460_ _459_] _461_ d_lut_NAND3X1
ANOR2X1_46 [i_add_term2_25_ i_add_term1_25_] _455_ d_lut_NOR2X1
AAND2X2_46 [i_add_term2_25_ i_add_term1_25_] _456_ d_lut_AND2X2
AOAI21X1_116 [_455_ _456_ _36__1_] _457_ d_lut_OAI21X1
ANAND2X1_116 [_457_ _461_] _34__1_ d_lut_NAND2X1
AOAI21X1_117 [_458_ _455_ _460_] _36__2_ d_lut_OAI21X1
AINVX1_71 [_36__2_] _465_ d_lut_INVX1
AOR2X2_46 [i_add_term2_26_ i_add_term1_26_] _466_ d_lut_OR2X2
ANAND2X1_117 [i_add_term2_26_ i_add_term1_26_] _467_ d_lut_NAND2X1
ANAND3X1_47 [_465_ _467_ _466_] _468_ d_lut_NAND3X1
ANOR2X1_47 [i_add_term2_26_ i_add_term1_26_] _462_ d_lut_NOR2X1
AAND2X2_47 [i_add_term2_26_ i_add_term1_26_] _463_ d_lut_AND2X2
AOAI21X1_118 [_462_ _463_ _36__2_] _464_ d_lut_OAI21X1
ANAND2X1_118 [_464_ _468_] _34__2_ d_lut_NAND2X1
AOAI21X1_119 [_465_ _462_ _467_] _36__3_ d_lut_OAI21X1
AINVX1_72 [_37_] _469_ d_lut_INVX1
ANAND2X1_119 [_38_ w_cout_6_] _470_ d_lut_NAND2X1
AOAI21X1_120 [w_cout_6_ _469_ _470_] w_cout_7_ d_lut_OAI21X1
AINVX1_73 [_39__0_] _471_ d_lut_INVX1
ANAND2X1_120 [_40__0_ w_cout_6_] _472_ d_lut_NAND2X1
AOAI21X1_121 [w_cout_6_ _471_ _472_] _0__28_ d_lut_OAI21X1
AINVX1_74 [_39__1_] _473_ d_lut_INVX1
ANAND2X1_121 [w_cout_6_ _40__1_] _474_ d_lut_NAND2X1
AOAI21X1_122 [w_cout_6_ _473_ _474_] _0__29_ d_lut_OAI21X1
AINVX1_75 [_39__2_] _475_ d_lut_INVX1
ANAND2X1_122 [w_cout_6_ _40__2_] _476_ d_lut_NAND2X1
AOAI21X1_123 [w_cout_6_ _475_ _476_] _0__30_ d_lut_OAI21X1