*SPICE netlist created from BLIF module csa_55bit by blif2BSpice
.include /usr/local/share/qflow/tech/osu035/osu035_stdcells.sp
.subckt csa_55bit vdd gnd i_add_term1[0] i_add_term1[1] i_add_term1[2] i_add_term1[3] i_add_term1[4] i_add_term1[5] i_add_term1[6] i_add_term1[7] i_add_term1[8] i_add_term1[9] i_add_term1[10] i_add_term1[11] i_add_term1[12] i_add_term1[13] i_add_term1[14] i_add_term1[15] i_add_term1[16] i_add_term1[17] i_add_term1[18] i_add_term1[19] i_add_term1[20] i_add_term1[21] i_add_term1[22] i_add_term1[23] i_add_term1[24] i_add_term1[25] i_add_term1[26] i_add_term1[27] i_add_term1[28] i_add_term1[29] i_add_term1[30] i_add_term1[31] i_add_term1[32] i_add_term1[33] i_add_term1[34] i_add_term1[35] i_add_term1[36] i_add_term1[37] i_add_term1[38] i_add_term1[39] i_add_term1[40] i_add_term1[41] i_add_term1[42] i_add_term1[43] i_add_term1[44] i_add_term1[45] i_add_term1[46] i_add_term1[47] i_add_term1[48] i_add_term1[49] i_add_term1[50] i_add_term1[51] i_add_term1[52] i_add_term1[53] i_add_term1[54] i_add_term2[0] i_add_term2[1] i_add_term2[2] i_add_term2[3] i_add_term2[4] i_add_term2[5] i_add_term2[6] i_add_term2[7] i_add_term2[8] i_add_term2[9] i_add_term2[10] i_add_term2[11] i_add_term2[12] i_add_term2[13] i_add_term2[14] i_add_term2[15] i_add_term2[16] i_add_term2[17] i_add_term2[18] i_add_term2[19] i_add_term2[20] i_add_term2[21] i_add_term2[22] i_add_term2[23] i_add_term2[24] i_add_term2[25] i_add_term2[26] i_add_term2[27] i_add_term2[28] i_add_term2[29] i_add_term2[30] i_add_term2[31] i_add_term2[32] i_add_term2[33] i_add_term2[34] i_add_term2[35] i_add_term2[36] i_add_term2[37] i_add_term2[38] i_add_term2[39] i_add_term2[40] i_add_term2[41] i_add_term2[42] i_add_term2[43] i_add_term2[44] i_add_term2[45] i_add_term2[46] i_add_term2[47] i_add_term2[48] i_add_term2[49] i_add_term2[50] i_add_term2[51] i_add_term2[52] i_add_term2[53] i_add_term2[54] sum[0] sum[1] sum[2] sum[3] sum[4] sum[5] sum[6] sum[7] sum[8] sum[9] sum[10] sum[11] sum[12] sum[13] sum[14] sum[15] sum[16] sum[17] sum[18] sum[19] sum[20] sum[21] sum[22] sum[23] sum[24] sum[25] sum[26] sum[27] sum[28] sum[29] sum[30] sum[31] sum[32] sum[33] sum[34] sum[35] sum[36] sum[37] sum[38] sum[39] sum[40] sum[41] sum[42] sum[43] sum[44] sum[45] sum[46] sum[47] sum[48] sum[49] sum[50] sum[51] sum[52] sum[53] sum[54] cout 
XOR2X2_1 _94_ i_add_term1[7] vdd gnd i_add_term2[7] OR2X2
XNAND2X1_1 vdd _95_ gnd i_add_term2[7] i_add_term1[7] NAND2X1
XNAND3X1_1 _95_ vdd gnd _93_ _94_ _96_ NAND3X1
XNOR2X1_1 vdd i_add_term1[7] gnd _90_ i_add_term2[7] NOR2X1
XAND2X2_1 vdd gnd i_add_term2[7] i_add_term1[7] _91_ AND2X2
XOAI21X1_1 gnd vdd _90_ _91_ _92_ _5_[3] OAI21X1
XNAND2X1_2 vdd _3_[3] gnd _92_ _96_ NAND2X1
XOAI21X1_2 gnd vdd _93_ _90_ _1_ _95_ OAI21X1
XINVX1_1 _5_[1] _100_ vdd gnd INVX1
XOR2X2_2 _101_ i_add_term1[5] vdd gnd i_add_term2[5] OR2X2
XNAND2X1_3 vdd _102_ gnd i_add_term2[5] i_add_term1[5] NAND2X1
XNAND3X1_2 _102_ vdd gnd _100_ _101_ _103_ NAND3X1
XNOR2X1_2 vdd i_add_term1[5] gnd _97_ i_add_term2[5] NOR2X1
XAND2X2_2 vdd gnd i_add_term2[5] i_add_term1[5] _98_ AND2X2
XOAI21X1_3 gnd vdd _97_ _98_ _99_ _5_[1] OAI21X1
XNAND2X1_4 vdd _3_[1] gnd _99_ _103_ NAND2X1
XOAI21X1_4 gnd vdd _100_ _97_ _5_[2] _102_ OAI21X1
XINVX1_2 _5_[2] _107_ vdd gnd INVX1
XOR2X2_3 _108_ i_add_term1[6] vdd gnd i_add_term2[6] OR2X2
XNAND2X1_5 vdd _109_ gnd i_add_term2[6] i_add_term1[6] NAND2X1
XNAND3X1_3 _109_ vdd gnd _107_ _108_ _110_ NAND3X1
XNOR2X1_3 vdd i_add_term1[6] gnd _104_ i_add_term2[6] NOR2X1
XAND2X2_3 vdd gnd i_add_term2[6] i_add_term1[6] _105_ AND2X2
XOAI21X1_5 gnd vdd _104_ _105_ _106_ _5_[2] OAI21X1
XNAND2X1_6 vdd _3_[2] gnd _106_ _110_ NAND2X1
XOAI21X1_6 gnd vdd _107_ _104_ _5_[3] _109_ OAI21X1
XINVX1_3 vdd _114_ vdd gnd INVX1
XOR2X2_4 _115_ i_add_term1[4] vdd gnd i_add_term2[4] OR2X2
XNAND2X1_7 vdd _116_ gnd i_add_term2[4] i_add_term1[4] NAND2X1
XNAND3X1_4 _116_ vdd gnd _114_ _115_ _117_ NAND3X1
XNOR2X1_4 vdd i_add_term1[4] gnd _111_ i_add_term2[4] NOR2X1
XAND2X2_4 vdd gnd i_add_term2[4] i_add_term1[4] _112_ AND2X2
XOAI21X1_7 gnd vdd _111_ _112_ _113_ vdd OAI21X1
XNAND2X1_8 vdd _4_[0] gnd _113_ _117_ NAND2X1
XOAI21X1_8 gnd vdd _114_ _111_ _6_[1] _116_ OAI21X1
XINVX1_4 _6_[3] _121_ vdd gnd INVX1
XOR2X2_5 _122_ i_add_term1[7] vdd gnd i_add_term2[7] OR2X2
XNAND2X1_9 vdd _123_ gnd i_add_term2[7] i_add_term1[7] NAND2X1
XNAND3X1_5 _123_ vdd gnd _121_ _122_ _124_ NAND3X1
XNOR2X1_5 vdd i_add_term1[7] gnd _118_ i_add_term2[7] NOR2X1
XAND2X2_5 vdd gnd i_add_term2[7] i_add_term1[7] _119_ AND2X2
XOAI21X1_9 gnd vdd _118_ _119_ _120_ _6_[3] OAI21X1
XNAND2X1_10 vdd _4_[3] gnd _120_ _124_ NAND2X1
XOAI21X1_10 gnd vdd _121_ _118_ _2_ _123_ OAI21X1
XINVX1_5 _6_[1] _128_ vdd gnd INVX1
XOR2X2_6 _129_ i_add_term1[5] vdd gnd i_add_term2[5] OR2X2
XNAND2X1_11 vdd _130_ gnd i_add_term2[5] i_add_term1[5] NAND2X1
XNAND3X1_6 _130_ vdd gnd _128_ _129_ _131_ NAND3X1
XNOR2X1_6 vdd i_add_term1[5] gnd _125_ i_add_term2[5] NOR2X1
XAND2X2_6 vdd gnd i_add_term2[5] i_add_term1[5] _126_ AND2X2
XOAI21X1_11 gnd vdd _125_ _126_ _127_ _6_[1] OAI21X1
XNAND2X1_12 vdd _4_[1] gnd _127_ _131_ NAND2X1
XOAI21X1_12 gnd vdd _128_ _125_ _6_[2] _130_ OAI21X1
XINVX1_6 _6_[2] _135_ vdd gnd INVX1
XOR2X2_7 _136_ i_add_term1[6] vdd gnd i_add_term2[6] OR2X2
XNAND2X1_13 vdd _137_ gnd i_add_term2[6] i_add_term1[6] NAND2X1
XNAND3X1_7 _137_ vdd gnd _135_ _136_ _138_ NAND3X1
XNOR2X1_7 vdd i_add_term1[6] gnd _132_ i_add_term2[6] NOR2X1
XAND2X2_7 vdd gnd i_add_term2[6] i_add_term1[6] _133_ AND2X2
XOAI21X1_13 gnd vdd _132_ _133_ _134_ _6_[2] OAI21X1
XNAND2X1_14 vdd _4_[2] gnd _134_ _138_ NAND2X1
XOAI21X1_14 gnd vdd _135_ _132_ _6_[3] _137_ OAI21X1
XINVX1_7 _7_ _139_ vdd gnd INVX1
XNAND2X1_15 vdd _140_ gnd _8_ w_cout[1] NAND2X1
XOAI21X1_15 gnd vdd w_cout[1] _139_ w_cout[2] _140_ OAI21X1
XINVX1_8 _9_[0] _141_ vdd gnd INVX1
XNAND2X1_16 vdd _142_ gnd _10_[0] w_cout[1] NAND2X1
XOAI21X1_16 gnd vdd w_cout[1] _141_ _0_[8] _142_ OAI21X1
XINVX1_9 _9_[1] _143_ vdd gnd INVX1
XNAND2X1_17 vdd _144_ gnd w_cout[1] _10_[1] NAND2X1
XOAI21X1_17 gnd vdd w_cout[1] _143_ _0_[9] _144_ OAI21X1
XINVX1_10 _9_[2] _145_ vdd gnd INVX1
XNAND2X1_18 vdd _146_ gnd w_cout[1] _10_[2] NAND2X1
XOAI21X1_18 gnd vdd w_cout[1] _145_ _0_[10] _146_ OAI21X1
XINVX1_11 _9_[3] _147_ vdd gnd INVX1
XNAND2X1_19 vdd _148_ gnd w_cout[1] _10_[3] NAND2X1
XOAI21X1_19 gnd vdd w_cout[1] _147_ _0_[11] _148_ OAI21X1
XINVX1_12 gnd _152_ vdd gnd INVX1
XOR2X2_8 _153_ i_add_term1[8] vdd gnd i_add_term2[8] OR2X2
XNAND2X1_20 vdd _154_ gnd i_add_term2[8] i_add_term1[8] NAND2X1
XNAND3X1_8 _154_ vdd gnd _152_ _153_ _155_ NAND3X1
XNOR2X1_8 vdd i_add_term1[8] gnd _149_ i_add_term2[8] NOR2X1
XAND2X2_8 vdd gnd i_add_term2[8] i_add_term1[8] _150_ AND2X2
XOAI21X1_20 gnd vdd _149_ _150_ _151_ gnd OAI21X1
XNAND2X1_21 vdd _9_[0] gnd _151_ _155_ NAND2X1
XOAI21X1_21 gnd vdd _152_ _149_ _11_[1] _154_ OAI21X1
XINVX1_13 _11_[3] _159_ vdd gnd INVX1
XOR2X2_9 _160_ i_add_term1[11] vdd gnd i_add_term2[11] OR2X2
XNAND2X1_22 vdd _161_ gnd i_add_term2[11] i_add_term1[11] NAND2X1
XNAND3X1_9 _161_ vdd gnd _159_ _160_ _162_ NAND3X1
XNOR2X1_9 vdd i_add_term1[11] gnd _156_ i_add_term2[11] NOR2X1
XAND2X2_9 vdd gnd i_add_term2[11] i_add_term1[11] _157_ AND2X2
XOAI21X1_22 gnd vdd _156_ _157_ _158_ _11_[3] OAI21X1
XNAND2X1_23 vdd _9_[3] gnd _158_ _162_ NAND2X1
XOAI21X1_23 gnd vdd _159_ _156_ _7_ _161_ OAI21X1
XINVX1_14 _11_[1] _166_ vdd gnd INVX1
XOR2X2_10 _167_ i_add_term1[9] vdd gnd i_add_term2[9] OR2X2
XNAND2X1_24 vdd _168_ gnd i_add_term2[9] i_add_term1[9] NAND2X1
XNAND3X1_10 _168_ vdd gnd _166_ _167_ _169_ NAND3X1
XNOR2X1_10 vdd i_add_term1[9] gnd _163_ i_add_term2[9] NOR2X1
XAND2X2_10 vdd gnd i_add_term2[9] i_add_term1[9] _164_ AND2X2
XOAI21X1_24 gnd vdd _163_ _164_ _165_ _11_[1] OAI21X1
XNAND2X1_25 vdd _9_[1] gnd _165_ _169_ NAND2X1
XOAI21X1_25 gnd vdd _166_ _163_ _11_[2] _168_ OAI21X1
XINVX1_15 _11_[2] _173_ vdd gnd INVX1
XOR2X2_11 _174_ i_add_term1[10] vdd gnd i_add_term2[10] OR2X2
XNAND2X1_26 vdd _175_ gnd i_add_term2[10] i_add_term1[10] NAND2X1
XNAND3X1_11 _175_ vdd gnd _173_ _174_ _176_ NAND3X1
XNOR2X1_11 vdd i_add_term1[10] gnd _170_ i_add_term2[10] NOR2X1
XAND2X2_11 vdd gnd i_add_term2[10] i_add_term1[10] _171_ AND2X2
XOAI21X1_26 gnd vdd _170_ _171_ _172_ _11_[2] OAI21X1
XNAND2X1_27 vdd _9_[2] gnd _172_ _176_ NAND2X1
XOAI21X1_27 gnd vdd _173_ _170_ _11_[3] _175_ OAI21X1
XINVX1_16 vdd _180_ vdd gnd INVX1
XOR2X2_12 _181_ i_add_term1[8] vdd gnd i_add_term2[8] OR2X2
XNAND2X1_28 vdd _182_ gnd i_add_term2[8] i_add_term1[8] NAND2X1
XNAND3X1_12 _182_ vdd gnd _180_ _181_ _183_ NAND3X1
XNOR2X1_12 vdd i_add_term1[8] gnd _177_ i_add_term2[8] NOR2X1
XAND2X2_12 vdd gnd i_add_term2[8] i_add_term1[8] _178_ AND2X2
XOAI21X1_28 gnd vdd _177_ _178_ _179_ vdd OAI21X1
XNAND2X1_29 vdd _10_[0] gnd _179_ _183_ NAND2X1
XOAI21X1_29 gnd vdd _180_ _177_ _12_[1] _182_ OAI21X1
XINVX1_17 _12_[3] _187_ vdd gnd INVX1
XOR2X2_13 _188_ i_add_term1[11] vdd gnd i_add_term2[11] OR2X2
XNAND2X1_30 vdd _189_ gnd i_add_term2[11] i_add_term1[11] NAND2X1
XNAND3X1_13 _189_ vdd gnd _187_ _188_ _190_ NAND3X1
XNOR2X1_13 vdd i_add_term1[11] gnd _184_ i_add_term2[11] NOR2X1
XAND2X2_13 vdd gnd i_add_term2[11] i_add_term1[11] _185_ AND2X2
XOAI21X1_30 gnd vdd _184_ _185_ _186_ _12_[3] OAI21X1
XNAND2X1_31 vdd _10_[3] gnd _186_ _190_ NAND2X1
XOAI21X1_31 gnd vdd _187_ _184_ _8_ _189_ OAI21X1
XINVX1_18 _12_[1] _194_ vdd gnd INVX1
XOR2X2_14 _195_ i_add_term1[9] vdd gnd i_add_term2[9] OR2X2
XNAND2X1_32 vdd _196_ gnd i_add_term2[9] i_add_term1[9] NAND2X1
XNAND3X1_14 _196_ vdd gnd _194_ _195_ _197_ NAND3X1
XNOR2X1_14 vdd i_add_term1[9] gnd _191_ i_add_term2[9] NOR2X1
XAND2X2_14 vdd gnd i_add_term2[9] i_add_term1[9] _192_ AND2X2
XOAI21X1_32 gnd vdd _191_ _192_ _193_ _12_[1] OAI21X1
XNAND2X1_33 vdd _10_[1] gnd _193_ _197_ NAND2X1
XOAI21X1_33 gnd vdd _194_ _191_ _12_[2] _196_ OAI21X1
XINVX1_19 _12_[2] _201_ vdd gnd INVX1
XOR2X2_15 _202_ i_add_term1[10] vdd gnd i_add_term2[10] OR2X2
XNAND2X1_34 vdd _203_ gnd i_add_term2[10] i_add_term1[10] NAND2X1
XNAND3X1_15 _203_ vdd gnd _201_ _202_ _204_ NAND3X1
XNOR2X1_15 vdd i_add_term1[10] gnd _198_ i_add_term2[10] NOR2X1
XAND2X2_15 vdd gnd i_add_term2[10] i_add_term1[10] _199_ AND2X2
XOAI21X1_34 gnd vdd _198_ _199_ _200_ _12_[2] OAI21X1
XNAND2X1_35 vdd _10_[2] gnd _200_ _204_ NAND2X1
XOAI21X1_35 gnd vdd _201_ _198_ _12_[3] _203_ OAI21X1
XINVX1_20 _13_ _205_ vdd gnd INVX1
XNAND2X1_36 vdd _206_ gnd _14_ w_cout[2] NAND2X1
XOAI21X1_36 gnd vdd w_cout[2] _205_ w_cout[3] _206_ OAI21X1
XINVX1_21 _15_[0] _207_ vdd gnd INVX1
XNAND2X1_37 vdd _208_ gnd _16_[0] w_cout[2] NAND2X1
XOAI21X1_37 gnd vdd w_cout[2] _207_ _0_[12] _208_ OAI21X1
XINVX1_22 _15_[1] _209_ vdd gnd INVX1
XNAND2X1_38 vdd _210_ gnd w_cout[2] _16_[1] NAND2X1
XOAI21X1_38 gnd vdd w_cout[2] _209_ _0_[13] _210_ OAI21X1
XINVX1_23 _15_[2] _211_ vdd gnd INVX1
XNAND2X1_39 vdd _212_ gnd w_cout[2] _16_[2] NAND2X1
XOAI21X1_39 gnd vdd w_cout[2] _211_ _0_[14] _212_ OAI21X1
XINVX1_24 _15_[3] _213_ vdd gnd INVX1
XNAND2X1_40 vdd _214_ gnd w_cout[2] _16_[3] NAND2X1
XOAI21X1_40 gnd vdd w_cout[2] _213_ _0_[15] _214_ OAI21X1
XINVX1_25 gnd _218_ vdd gnd INVX1
XOR2X2_16 _219_ i_add_term1[12] vdd gnd i_add_term2[12] OR2X2
XNAND2X1_41 vdd _220_ gnd i_add_term2[12] i_add_term1[12] NAND2X1
XNAND3X1_16 _220_ vdd gnd _218_ _219_ _221_ NAND3X1
XNOR2X1_16 vdd i_add_term1[12] gnd _215_ i_add_term2[12] NOR2X1
XAND2X2_16 vdd gnd i_add_term2[12] i_add_term1[12] _216_ AND2X2
XOAI21X1_41 gnd vdd _215_ _216_ _217_ gnd OAI21X1
XNAND2X1_42 vdd _15_[0] gnd _217_ _221_ NAND2X1
XOAI21X1_42 gnd vdd _218_ _215_ _17_[1] _220_ OAI21X1
XINVX1_26 _17_[3] _225_ vdd gnd INVX1
XOR2X2_17 _226_ i_add_term1[15] vdd gnd i_add_term2[15] OR2X2
XNAND2X1_43 vdd _227_ gnd i_add_term2[15] i_add_term1[15] NAND2X1
XNAND3X1_17 _227_ vdd gnd _225_ _226_ _228_ NAND3X1
XNOR2X1_17 vdd i_add_term1[15] gnd _222_ i_add_term2[15] NOR2X1
XAND2X2_17 vdd gnd i_add_term2[15] i_add_term1[15] _223_ AND2X2
XOAI21X1_43 gnd vdd _222_ _223_ _224_ _17_[3] OAI21X1
XNAND2X1_44 vdd _15_[3] gnd _224_ _228_ NAND2X1
XOAI21X1_44 gnd vdd _225_ _222_ _13_ _227_ OAI21X1
XINVX1_27 _17_[1] _232_ vdd gnd INVX1
XOR2X2_18 _233_ i_add_term1[13] vdd gnd i_add_term2[13] OR2X2
XNAND2X1_45 vdd _234_ gnd i_add_term2[13] i_add_term1[13] NAND2X1
XNAND3X1_18 _234_ vdd gnd _232_ _233_ _235_ NAND3X1
XNOR2X1_18 vdd i_add_term1[13] gnd _229_ i_add_term2[13] NOR2X1
XAND2X2_18 vdd gnd i_add_term2[13] i_add_term1[13] _230_ AND2X2
XOAI21X1_45 gnd vdd _229_ _230_ _231_ _17_[1] OAI21X1
XNAND2X1_46 vdd _15_[1] gnd _231_ _235_ NAND2X1
XOAI21X1_46 gnd vdd _232_ _229_ _17_[2] _234_ OAI21X1
XINVX1_28 _17_[2] _239_ vdd gnd INVX1
XOR2X2_19 _240_ i_add_term1[14] vdd gnd i_add_term2[14] OR2X2
XNAND2X1_47 vdd _241_ gnd i_add_term2[14] i_add_term1[14] NAND2X1
XNAND3X1_19 _241_ vdd gnd _239_ _240_ _242_ NAND3X1
XNOR2X1_19 vdd i_add_term1[14] gnd _236_ i_add_term2[14] NOR2X1
XAND2X2_19 vdd gnd i_add_term2[14] i_add_term1[14] _237_ AND2X2
XOAI21X1_47 gnd vdd _236_ _237_ _238_ _17_[2] OAI21X1
XNAND2X1_48 vdd _15_[2] gnd _238_ _242_ NAND2X1
XOAI21X1_48 gnd vdd _239_ _236_ _17_[3] _241_ OAI21X1
XINVX1_29 vdd _246_ vdd gnd INVX1
XOR2X2_20 _247_ i_add_term1[12] vdd gnd i_add_term2[12] OR2X2
XNAND2X1_49 vdd _248_ gnd i_add_term2[12] i_add_term1[12] NAND2X1
XNAND3X1_20 _248_ vdd gnd _246_ _247_ _249_ NAND3X1
XNOR2X1_20 vdd i_add_term1[12] gnd _243_ i_add_term2[12] NOR2X1
XAND2X2_20 vdd gnd i_add_term2[12] i_add_term1[12] _244_ AND2X2
XOAI21X1_49 gnd vdd _243_ _244_ _245_ vdd OAI21X1
XNAND2X1_50 vdd _16_[0] gnd _245_ _249_ NAND2X1
XOAI21X1_50 gnd vdd _246_ _243_ _18_[1] _248_ OAI21X1
XINVX1_30 _18_[3] _253_ vdd gnd INVX1
XOR2X2_21 _254_ i_add_term1[15] vdd gnd i_add_term2[15] OR2X2
XNAND2X1_51 vdd _255_ gnd i_add_term2[15] i_add_term1[15] NAND2X1
XNAND3X1_21 _255_ vdd gnd _253_ _254_ _256_ NAND3X1
XNOR2X1_21 vdd i_add_term1[15] gnd _250_ i_add_term2[15] NOR2X1
XAND2X2_21 vdd gnd i_add_term2[15] i_add_term1[15] _251_ AND2X2
XOAI21X1_51 gnd vdd _250_ _251_ _252_ _18_[3] OAI21X1
XNAND2X1_52 vdd _16_[3] gnd _252_ _256_ NAND2X1
XOAI21X1_52 gnd vdd _253_ _250_ _14_ _255_ OAI21X1
XINVX1_31 _18_[1] _260_ vdd gnd INVX1
XOR2X2_22 _261_ i_add_term1[13] vdd gnd i_add_term2[13] OR2X2
XNAND2X1_53 vdd _262_ gnd i_add_term2[13] i_add_term1[13] NAND2X1
XNAND3X1_22 _262_ vdd gnd _260_ _261_ _263_ NAND3X1
XNOR2X1_22 vdd i_add_term1[13] gnd _257_ i_add_term2[13] NOR2X1
XAND2X2_22 vdd gnd i_add_term2[13] i_add_term1[13] _258_ AND2X2
XOAI21X1_53 gnd vdd _257_ _258_ _259_ _18_[1] OAI21X1
XNAND2X1_54 vdd _16_[1] gnd _259_ _263_ NAND2X1
XOAI21X1_54 gnd vdd _260_ _257_ _18_[2] _262_ OAI21X1
XINVX1_32 _18_[2] _267_ vdd gnd INVX1
XOR2X2_23 _268_ i_add_term1[14] vdd gnd i_add_term2[14] OR2X2
XNAND2X1_55 vdd _269_ gnd i_add_term2[14] i_add_term1[14] NAND2X1
XNAND3X1_23 _269_ vdd gnd _267_ _268_ _270_ NAND3X1
XNOR2X1_23 vdd i_add_term1[14] gnd _264_ i_add_term2[14] NOR2X1
XAND2X2_23 vdd gnd i_add_term2[14] i_add_term1[14] _265_ AND2X2
XOAI21X1_55 gnd vdd _264_ _265_ _266_ _18_[2] OAI21X1
XNAND2X1_56 vdd _16_[2] gnd _266_ _270_ NAND2X1
XOAI21X1_56 gnd vdd _267_ _264_ _18_[3] _269_ OAI21X1
XINVX1_33 _19_ _271_ vdd gnd INVX1
XNAND2X1_57 vdd _272_ gnd _20_ w_cout[3] NAND2X1
XOAI21X1_57 gnd vdd w_cout[3] _271_ w_cout[4] _272_ OAI21X1
XINVX1_34 _21_[0] _273_ vdd gnd INVX1
XNAND2X1_58 vdd _274_ gnd _22_[0] w_cout[3] NAND2X1
XOAI21X1_58 gnd vdd w_cout[3] _273_ _0_[16] _274_ OAI21X1
XINVX1_35 _21_[1] _275_ vdd gnd INVX1
XNAND2X1_59 vdd _276_ gnd w_cout[3] _22_[1] NAND2X1
XOAI21X1_59 gnd vdd w_cout[3] _275_ _0_[17] _276_ OAI21X1
XINVX1_36 _21_[2] _277_ vdd gnd INVX1
XNAND2X1_60 vdd _278_ gnd w_cout[3] _22_[2] NAND2X1
XOAI21X1_60 gnd vdd w_cout[3] _277_ _0_[18] _278_ OAI21X1
XINVX1_37 _21_[3] _279_ vdd gnd INVX1
XNAND2X1_61 vdd _280_ gnd w_cout[3] _22_[3] NAND2X1
XOAI21X1_61 gnd vdd w_cout[3] _279_ _0_[19] _280_ OAI21X1
XINVX1_38 gnd _284_ vdd gnd INVX1
XOR2X2_24 _285_ i_add_term1[16] vdd gnd i_add_term2[16] OR2X2
XNAND2X1_62 vdd _286_ gnd i_add_term2[16] i_add_term1[16] NAND2X1
XNAND3X1_24 _286_ vdd gnd _284_ _285_ _287_ NAND3X1
XNOR2X1_24 vdd i_add_term1[16] gnd _281_ i_add_term2[16] NOR2X1
XAND2X2_24 vdd gnd i_add_term2[16] i_add_term1[16] _282_ AND2X2
XOAI21X1_62 gnd vdd _281_ _282_ _283_ gnd OAI21X1
XNAND2X1_63 vdd _21_[0] gnd _283_ _287_ NAND2X1
XOAI21X1_63 gnd vdd _284_ _281_ _23_[1] _286_ OAI21X1
XINVX1_39 _23_[3] _291_ vdd gnd INVX1
XOR2X2_25 _292_ i_add_term1[19] vdd gnd i_add_term2[19] OR2X2
XNAND2X1_64 vdd _293_ gnd i_add_term2[19] i_add_term1[19] NAND2X1
XNAND3X1_25 _293_ vdd gnd _291_ _292_ _294_ NAND3X1
XNOR2X1_25 vdd i_add_term1[19] gnd _288_ i_add_term2[19] NOR2X1
XAND2X2_25 vdd gnd i_add_term2[19] i_add_term1[19] _289_ AND2X2
XOAI21X1_64 gnd vdd _288_ _289_ _290_ _23_[3] OAI21X1
XNAND2X1_65 vdd _21_[3] gnd _290_ _294_ NAND2X1
XOAI21X1_65 gnd vdd _291_ _288_ _19_ _293_ OAI21X1
XINVX1_40 _23_[1] _298_ vdd gnd INVX1
XOR2X2_26 _299_ i_add_term1[17] vdd gnd i_add_term2[17] OR2X2
XNAND2X1_66 vdd _300_ gnd i_add_term2[17] i_add_term1[17] NAND2X1
XNAND3X1_26 _300_ vdd gnd _298_ _299_ _301_ NAND3X1
XNOR2X1_26 vdd i_add_term1[17] gnd _295_ i_add_term2[17] NOR2X1
XAND2X2_26 vdd gnd i_add_term2[17] i_add_term1[17] _296_ AND2X2
XOAI21X1_66 gnd vdd _295_ _296_ _297_ _23_[1] OAI21X1
XNAND2X1_67 vdd _21_[1] gnd _297_ _301_ NAND2X1
XOAI21X1_67 gnd vdd _298_ _295_ _23_[2] _300_ OAI21X1
XINVX1_41 _23_[2] _305_ vdd gnd INVX1
XOR2X2_27 _306_ i_add_term1[18] vdd gnd i_add_term2[18] OR2X2
XNAND2X1_68 vdd _307_ gnd i_add_term2[18] i_add_term1[18] NAND2X1
XNAND3X1_27 _307_ vdd gnd _305_ _306_ _308_ NAND3X1
XNOR2X1_27 vdd i_add_term1[18] gnd _302_ i_add_term2[18] NOR2X1
XAND2X2_27 vdd gnd i_add_term2[18] i_add_term1[18] _303_ AND2X2
XOAI21X1_68 gnd vdd _302_ _303_ _304_ _23_[2] OAI21X1
XNAND2X1_69 vdd _21_[2] gnd _304_ _308_ NAND2X1
XOAI21X1_69 gnd vdd _305_ _302_ _23_[3] _307_ OAI21X1
XINVX1_42 vdd _312_ vdd gnd INVX1
XOR2X2_28 _313_ i_add_term1[16] vdd gnd i_add_term2[16] OR2X2
XNAND2X1_70 vdd _314_ gnd i_add_term2[16] i_add_term1[16] NAND2X1
XNAND3X1_28 _314_ vdd gnd _312_ _313_ _315_ NAND3X1
XNOR2X1_28 vdd i_add_term1[16] gnd _309_ i_add_term2[16] NOR2X1
XAND2X2_28 vdd gnd i_add_term2[16] i_add_term1[16] _310_ AND2X2
XOAI21X1_70 gnd vdd _309_ _310_ _311_ vdd OAI21X1
XNAND2X1_71 vdd _22_[0] gnd _311_ _315_ NAND2X1
XOAI21X1_71 gnd vdd _312_ _309_ _24_[1] _314_ OAI21X1
XINVX1_43 _24_[3] _319_ vdd gnd INVX1
XOR2X2_29 _320_ i_add_term1[19] vdd gnd i_add_term2[19] OR2X2
XNAND2X1_72 vdd _321_ gnd i_add_term2[19] i_add_term1[19] NAND2X1
XNAND3X1_29 _321_ vdd gnd _319_ _320_ _322_ NAND3X1
XNOR2X1_29 vdd i_add_term1[19] gnd _316_ i_add_term2[19] NOR2X1
XAND2X2_29 vdd gnd i_add_term2[19] i_add_term1[19] _317_ AND2X2
XOAI21X1_72 gnd vdd _316_ _317_ _318_ _24_[3] OAI21X1
XNAND2X1_73 vdd _22_[3] gnd _318_ _322_ NAND2X1
XOAI21X1_73 gnd vdd _319_ _316_ _20_ _321_ OAI21X1
XINVX1_44 _24_[1] _326_ vdd gnd INVX1
XOR2X2_30 _327_ i_add_term1[17] vdd gnd i_add_term2[17] OR2X2
XNAND2X1_74 vdd _328_ gnd i_add_term2[17] i_add_term1[17] NAND2X1
XNAND3X1_30 _328_ vdd gnd _326_ _327_ _329_ NAND3X1
XNOR2X1_30 vdd i_add_term1[17] gnd _323_ i_add_term2[17] NOR2X1
XAND2X2_30 vdd gnd i_add_term2[17] i_add_term1[17] _324_ AND2X2
XOAI21X1_74 gnd vdd _323_ _324_ _325_ _24_[1] OAI21X1
XNAND2X1_75 vdd _22_[1] gnd _325_ _329_ NAND2X1
XOAI21X1_75 gnd vdd _326_ _323_ _24_[2] _328_ OAI21X1
XINVX1_45 _24_[2] _333_ vdd gnd INVX1
XOR2X2_31 _334_ i_add_term1[18] vdd gnd i_add_term2[18] OR2X2
XNAND2X1_76 vdd _335_ gnd i_add_term2[18] i_add_term1[18] NAND2X1
XNAND3X1_31 _335_ vdd gnd _333_ _334_ _336_ NAND3X1
XNOR2X1_31 vdd i_add_term1[18] gnd _330_ i_add_term2[18] NOR2X1
XAND2X2_31 vdd gnd i_add_term2[18] i_add_term1[18] _331_ AND2X2
XOAI21X1_76 gnd vdd _330_ _331_ _332_ _24_[2] OAI21X1
XNAND2X1_77 vdd _22_[2] gnd _332_ _336_ NAND2X1
XOAI21X1_77 gnd vdd _333_ _330_ _24_[3] _335_ OAI21X1
XINVX1_46 _25_ _337_ vdd gnd INVX1
XNAND2X1_78 vdd _338_ gnd _26_ w_cout[4] NAND2X1
XOAI21X1_78 gnd vdd w_cout[4] _337_ w_cout[5] _338_ OAI21X1
XINVX1_47 _27_[0] _339_ vdd gnd INVX1
XNAND2X1_79 vdd _340_ gnd _28_[0] w_cout[4] NAND2X1
XOAI21X1_79 gnd vdd w_cout[4] _339_ _0_[20] _340_ OAI21X1
XINVX1_48 _27_[1] _341_ vdd gnd INVX1
XNAND2X1_80 vdd _342_ gnd w_cout[4] _28_[1] NAND2X1
XOAI21X1_80 gnd vdd w_cout[4] _341_ _0_[21] _342_ OAI21X1
XINVX1_49 _27_[2] _343_ vdd gnd INVX1
XNAND2X1_81 vdd _344_ gnd w_cout[4] _28_[2] NAND2X1
XOAI21X1_81 gnd vdd w_cout[4] _343_ _0_[22] _344_ OAI21X1
XINVX1_50 _27_[3] _345_ vdd gnd INVX1
XNAND2X1_82 vdd _346_ gnd w_cout[4] _28_[3] NAND2X1
XOAI21X1_82 gnd vdd w_cout[4] _345_ _0_[23] _346_ OAI21X1
XINVX1_51 gnd _350_ vdd gnd INVX1
XOR2X2_32 _351_ i_add_term1[20] vdd gnd i_add_term2[20] OR2X2
XNAND2X1_83 vdd _352_ gnd i_add_term2[20] i_add_term1[20] NAND2X1
XNAND3X1_32 _352_ vdd gnd _350_ _351_ _353_ NAND3X1
XNOR2X1_32 vdd i_add_term1[20] gnd _347_ i_add_term2[20] NOR2X1
XAND2X2_32 vdd gnd i_add_term2[20] i_add_term1[20] _348_ AND2X2
XOAI21X1_83 gnd vdd _347_ _348_ _349_ gnd OAI21X1
XNAND2X1_84 vdd _27_[0] gnd _349_ _353_ NAND2X1
XOAI21X1_84 gnd vdd _350_ _347_ _29_[1] _352_ OAI21X1
XINVX1_52 _29_[3] _357_ vdd gnd INVX1
XOR2X2_33 _358_ i_add_term1[23] vdd gnd i_add_term2[23] OR2X2
XNAND2X1_85 vdd _359_ gnd i_add_term2[23] i_add_term1[23] NAND2X1
XNAND3X1_33 _359_ vdd gnd _357_ _358_ _360_ NAND3X1
XNOR2X1_33 vdd i_add_term1[23] gnd _354_ i_add_term2[23] NOR2X1
XAND2X2_33 vdd gnd i_add_term2[23] i_add_term1[23] _355_ AND2X2
XOAI21X1_85 gnd vdd _354_ _355_ _356_ _29_[3] OAI21X1
XNAND2X1_86 vdd _27_[3] gnd _356_ _360_ NAND2X1
XOAI21X1_86 gnd vdd _357_ _354_ _25_ _359_ OAI21X1
XINVX1_53 _29_[1] _364_ vdd gnd INVX1
XOR2X2_34 _365_ i_add_term1[21] vdd gnd i_add_term2[21] OR2X2
XNAND2X1_87 vdd _366_ gnd i_add_term2[21] i_add_term1[21] NAND2X1
XNAND3X1_34 _366_ vdd gnd _364_ _365_ _367_ NAND3X1
XNOR2X1_34 vdd i_add_term1[21] gnd _361_ i_add_term2[21] NOR2X1
XAND2X2_34 vdd gnd i_add_term2[21] i_add_term1[21] _362_ AND2X2
XOAI21X1_87 gnd vdd _361_ _362_ _363_ _29_[1] OAI21X1
XNAND2X1_88 vdd _27_[1] gnd _363_ _367_ NAND2X1
XOAI21X1_88 gnd vdd _364_ _361_ _29_[2] _366_ OAI21X1
XINVX1_54 _29_[2] _371_ vdd gnd INVX1
XOR2X2_35 _372_ i_add_term1[22] vdd gnd i_add_term2[22] OR2X2
XNAND2X1_89 vdd _373_ gnd i_add_term2[22] i_add_term1[22] NAND2X1
XNAND3X1_35 _373_ vdd gnd _371_ _372_ _374_ NAND3X1
XNOR2X1_35 vdd i_add_term1[22] gnd _368_ i_add_term2[22] NOR2X1
XAND2X2_35 vdd gnd i_add_term2[22] i_add_term1[22] _369_ AND2X2
XOAI21X1_89 gnd vdd _368_ _369_ _370_ _29_[2] OAI21X1
XNAND2X1_90 vdd _27_[2] gnd _370_ _374_ NAND2X1
XOAI21X1_90 gnd vdd _371_ _368_ _29_[3] _373_ OAI21X1
XINVX1_55 vdd _378_ vdd gnd INVX1
XOR2X2_36 _379_ i_add_term1[20] vdd gnd i_add_term2[20] OR2X2
XNAND2X1_91 vdd _380_ gnd i_add_term2[20] i_add_term1[20] NAND2X1
XNAND3X1_36 _380_ vdd gnd _378_ _379_ _381_ NAND3X1
XNOR2X1_36 vdd i_add_term1[20] gnd _375_ i_add_term2[20] NOR2X1
XAND2X2_36 vdd gnd i_add_term2[20] i_add_term1[20] _376_ AND2X2
XOAI21X1_91 gnd vdd _375_ _376_ _377_ vdd OAI21X1
XNAND2X1_92 vdd _28_[0] gnd _377_ _381_ NAND2X1
XOAI21X1_92 gnd vdd _378_ _375_ _30_[1] _380_ OAI21X1
XINVX1_56 _30_[3] _385_ vdd gnd INVX1
XOR2X2_37 _386_ i_add_term1[23] vdd gnd i_add_term2[23] OR2X2
XNAND2X1_93 vdd _387_ gnd i_add_term2[23] i_add_term1[23] NAND2X1
XNAND3X1_37 _387_ vdd gnd _385_ _386_ _388_ NAND3X1
XNOR2X1_37 vdd i_add_term1[23] gnd _382_ i_add_term2[23] NOR2X1
XAND2X2_37 vdd gnd i_add_term2[23] i_add_term1[23] _383_ AND2X2
XOAI21X1_93 gnd vdd _382_ _383_ _384_ _30_[3] OAI21X1
XNAND2X1_94 vdd _28_[3] gnd _384_ _388_ NAND2X1
XOAI21X1_94 gnd vdd _385_ _382_ _26_ _387_ OAI21X1
XINVX1_57 _30_[1] _392_ vdd gnd INVX1
XOR2X2_38 _393_ i_add_term1[21] vdd gnd i_add_term2[21] OR2X2
XNAND2X1_95 vdd _394_ gnd i_add_term2[21] i_add_term1[21] NAND2X1
XNAND3X1_38 _394_ vdd gnd _392_ _393_ _395_ NAND3X1
XNOR2X1_38 vdd i_add_term1[21] gnd _389_ i_add_term2[21] NOR2X1
XAND2X2_38 vdd gnd i_add_term2[21] i_add_term1[21] _390_ AND2X2
XOAI21X1_95 gnd vdd _389_ _390_ _391_ _30_[1] OAI21X1
XNAND2X1_96 vdd _28_[1] gnd _391_ _395_ NAND2X1
XOAI21X1_96 gnd vdd _392_ _389_ _30_[2] _394_ OAI21X1
XINVX1_58 _30_[2] _399_ vdd gnd INVX1
XOR2X2_39 _400_ i_add_term1[22] vdd gnd i_add_term2[22] OR2X2
XNAND2X1_97 vdd _401_ gnd i_add_term2[22] i_add_term1[22] NAND2X1
XNAND3X1_39 _401_ vdd gnd _399_ _400_ _402_ NAND3X1
XNOR2X1_39 vdd i_add_term1[22] gnd _396_ i_add_term2[22] NOR2X1
XAND2X2_39 vdd gnd i_add_term2[22] i_add_term1[22] _397_ AND2X2
XOAI21X1_97 gnd vdd _396_ _397_ _398_ _30_[2] OAI21X1
XNAND2X1_98 vdd _28_[2] gnd _398_ _402_ NAND2X1
XOAI21X1_98 gnd vdd _399_ _396_ _30_[3] _401_ OAI21X1
XINVX1_59 _31_ _403_ vdd gnd INVX1
XNAND2X1_99 vdd _404_ gnd _32_ w_cout[5] NAND2X1
XOAI21X1_99 gnd vdd w_cout[5] _403_ w_cout[6] _404_ OAI21X1
XINVX1_60 _33_[0] _405_ vdd gnd INVX1
XNAND2X1_100 vdd _406_ gnd _34_[0] w_cout[5] NAND2X1
XOAI21X1_100 gnd vdd w_cout[5] _405_ _0_[24] _406_ OAI21X1
XINVX1_61 _33_[1] _407_ vdd gnd INVX1
XNAND2X1_101 vdd _408_ gnd w_cout[5] _34_[1] NAND2X1
XOAI21X1_101 gnd vdd w_cout[5] _407_ _0_[25] _408_ OAI21X1
XINVX1_62 _33_[2] _409_ vdd gnd INVX1
XNAND2X1_102 vdd _410_ gnd w_cout[5] _34_[2] NAND2X1
XOAI21X1_102 gnd vdd w_cout[5] _409_ _0_[26] _410_ OAI21X1
XINVX1_63 _33_[3] _411_ vdd gnd INVX1
XNAND2X1_103 vdd _412_ gnd w_cout[5] _34_[3] NAND2X1
XOAI21X1_103 gnd vdd w_cout[5] _411_ _0_[27] _412_ OAI21X1
XINVX1_64 gnd _416_ vdd gnd INVX1
XOR2X2_40 _417_ i_add_term1[24] vdd gnd i_add_term2[24] OR2X2
XNAND2X1_104 vdd _418_ gnd i_add_term2[24] i_add_term1[24] NAND2X1
XNAND3X1_40 _418_ vdd gnd _416_ _417_ _419_ NAND3X1
XNOR2X1_40 vdd i_add_term1[24] gnd _413_ i_add_term2[24] NOR2X1
XAND2X2_40 vdd gnd i_add_term2[24] i_add_term1[24] _414_ AND2X2
XOAI21X1_104 gnd vdd _413_ _414_ _415_ gnd OAI21X1
XNAND2X1_105 vdd _33_[0] gnd _415_ _419_ NAND2X1
XOAI21X1_105 gnd vdd _416_ _413_ _35_[1] _418_ OAI21X1
XINVX1_65 _35_[3] _423_ vdd gnd INVX1
XOR2X2_41 _424_ i_add_term1[27] vdd gnd i_add_term2[27] OR2X2
XNAND2X1_106 vdd _425_ gnd i_add_term2[27] i_add_term1[27] NAND2X1
XNAND3X1_41 _425_ vdd gnd _423_ _424_ _426_ NAND3X1
XNOR2X1_41 vdd i_add_term1[27] gnd _420_ i_add_term2[27] NOR2X1
XAND2X2_41 vdd gnd i_add_term2[27] i_add_term1[27] _421_ AND2X2
XOAI21X1_106 gnd vdd _420_ _421_ _422_ _35_[3] OAI21X1
XNAND2X1_107 vdd _33_[3] gnd _422_ _426_ NAND2X1
XOAI21X1_107 gnd vdd _423_ _420_ _31_ _425_ OAI21X1
XINVX1_66 _35_[1] _430_ vdd gnd INVX1
XOR2X2_42 _431_ i_add_term1[25] vdd gnd i_add_term2[25] OR2X2
XNAND2X1_108 vdd _432_ gnd i_add_term2[25] i_add_term1[25] NAND2X1
XNAND3X1_42 _432_ vdd gnd _430_ _431_ _433_ NAND3X1
XNOR2X1_42 vdd i_add_term1[25] gnd _427_ i_add_term2[25] NOR2X1
XAND2X2_42 vdd gnd i_add_term2[25] i_add_term1[25] _428_ AND2X2
XOAI21X1_108 gnd vdd _427_ _428_ _429_ _35_[1] OAI21X1
XNAND2X1_109 vdd _33_[1] gnd _429_ _433_ NAND2X1
XOAI21X1_109 gnd vdd _430_ _427_ _35_[2] _432_ OAI21X1
XINVX1_67 _35_[2] _437_ vdd gnd INVX1
XOR2X2_43 _438_ i_add_term1[26] vdd gnd i_add_term2[26] OR2X2
XNAND2X1_110 vdd _439_ gnd i_add_term2[26] i_add_term1[26] NAND2X1
XNAND3X1_43 _439_ vdd gnd _437_ _438_ _440_ NAND3X1
XNOR2X1_43 vdd i_add_term1[26] gnd _434_ i_add_term2[26] NOR2X1
XAND2X2_43 vdd gnd i_add_term2[26] i_add_term1[26] _435_ AND2X2
XOAI21X1_110 gnd vdd _434_ _435_ _436_ _35_[2] OAI21X1
XNAND2X1_111 vdd _33_[2] gnd _436_ _440_ NAND2X1
XOAI21X1_111 gnd vdd _437_ _434_ _35_[3] _439_ OAI21X1
XINVX1_68 vdd _444_ vdd gnd INVX1
XOR2X2_44 _445_ i_add_term1[24] vdd gnd i_add_term2[24] OR2X2
XNAND2X1_112 vdd _446_ gnd i_add_term2[24] i_add_term1[24] NAND2X1
XNAND3X1_44 _446_ vdd gnd _444_ _445_ _447_ NAND3X1
XNOR2X1_44 vdd i_add_term1[24] gnd _441_ i_add_term2[24] NOR2X1
XAND2X2_44 vdd gnd i_add_term2[24] i_add_term1[24] _442_ AND2X2
XOAI21X1_112 gnd vdd _441_ _442_ _443_ vdd OAI21X1
XNAND2X1_113 vdd _34_[0] gnd _443_ _447_ NAND2X1
XOAI21X1_113 gnd vdd _444_ _441_ _36_[1] _446_ OAI21X1
XINVX1_69 _36_[3] _451_ vdd gnd INVX1
XOR2X2_45 _452_ i_add_term1[27] vdd gnd i_add_term2[27] OR2X2
XNAND2X1_114 vdd _453_ gnd i_add_term2[27] i_add_term1[27] NAND2X1
XNAND3X1_45 _453_ vdd gnd _451_ _452_ _454_ NAND3X1
XNOR2X1_45 vdd i_add_term1[27] gnd _448_ i_add_term2[27] NOR2X1
XAND2X2_45 vdd gnd i_add_term2[27] i_add_term1[27] _449_ AND2X2
XOAI21X1_114 gnd vdd _448_ _449_ _450_ _36_[3] OAI21X1
XNAND2X1_115 vdd _34_[3] gnd _450_ _454_ NAND2X1
XOAI21X1_115 gnd vdd _451_ _448_ _32_ _453_ OAI21X1
XINVX1_70 _36_[1] _458_ vdd gnd INVX1
XOR2X2_46 _459_ i_add_term1[25] vdd gnd i_add_term2[25] OR2X2
XNAND2X1_116 vdd _460_ gnd i_add_term2[25] i_add_term1[25] NAND2X1
XNAND3X1_46 _460_ vdd gnd _458_ _459_ _461_ NAND3X1
XNOR2X1_46 vdd i_add_term1[25] gnd _455_ i_add_term2[25] NOR2X1
XAND2X2_46 vdd gnd i_add_term2[25] i_add_term1[25] _456_ AND2X2
XOAI21X1_116 gnd vdd _455_ _456_ _457_ _36_[1] OAI21X1
XNAND2X1_117 vdd _34_[1] gnd _457_ _461_ NAND2X1
XOAI21X1_117 gnd vdd _458_ _455_ _36_[2] _460_ OAI21X1
XINVX1_71 _36_[2] _465_ vdd gnd INVX1
XOR2X2_47 _466_ i_add_term1[26] vdd gnd i_add_term2[26] OR2X2
XNAND2X1_118 vdd _467_ gnd i_add_term2[26] i_add_term1[26] NAND2X1
XNAND3X1_47 _467_ vdd gnd _465_ _466_ _468_ NAND3X1
XNOR2X1_47 vdd i_add_term1[26] gnd _462_ i_add_term2[26] NOR2X1
XAND2X2_47 vdd gnd i_add_term2[26] i_add_term1[26] _463_ AND2X2
XOAI21X1_118 gnd vdd _462_ _463_ _464_ _36_[2] OAI21X1
XNAND2X1_119 vdd _34_[2] gnd _464_ _468_ NAND2X1
XOAI21X1_119 gnd vdd _465_ _462_ _36_[3] _467_ OAI21X1
XINVX1_72 _37_ _469_ vdd gnd INVX1
XNAND2X1_120 vdd _470_ gnd _38_ w_cout[6] NAND2X1
XOAI21X1_120 gnd vdd w_cout[6] _469_ w_cout[7] _470_ OAI21X1
XINVX1_73 _39_[0] _471_ vdd gnd INVX1
XNAND2X1_121 vdd _472_ gnd _40_[0] w_cout[6] NAND2X1
XOAI21X1_121 gnd vdd w_cout[6] _471_ _0_[28] _472_ OAI21X1
XINVX1_74 _39_[1] _473_ vdd gnd INVX1
XNAND2X1_122 vdd _474_ gnd w_cout[6] _40_[1] NAND2X1
XOAI21X1_122 gnd vdd w_cout[6] _473_ _0_[29] _474_ OAI21X1
XINVX1_75 _39_[2] _475_ vdd gnd INVX1
XNAND2X1_123 vdd _476_ gnd w_cout[6] _40_[2] NAND2X1
XOAI21X1_123 gnd vdd w_cout[6] _475_ _0_[30] _476_ OAI21X1
XINVX1_76 _39_[3] _477_ vdd gnd INVX1
XNAND2X1_124 vdd _478_ gnd w_cout[6] _40_[3] NAND2X1