* XSpice netlist created from SPICE and liberty sources by spi2xspice.py
*SPICE netlist created from BLIF module csa_39bit by blif2BSpice
.subckt csa_39bit a_vdd a_gnd a_i_add_term1_0_ a_i_add_term1_1_ a_i_add_term1_2_ a_i_add_term1_3_ a_i_add_term1_4_ a_i_add_term1_5_ a_i_add_term1_6_ a_i_add_term1_7_ a_i_add_term1_8_ a_i_add_term1_9_ a_i_add_term1_10_ a_i_add_term1_11_ a_i_add_term1_12_ a_i_add_term1_13_ a_i_add_term1_14_ a_i_add_term1_15_ a_i_add_term1_16_ a_i_add_term1_17_ a_i_add_term1_18_ a_i_add_term1_19_ a_i_add_term1_20_ a_i_add_term1_21_ a_i_add_term1_22_ a_i_add_term1_23_ a_i_add_term1_24_ a_i_add_term1_25_ a_i_add_term1_26_ a_i_add_term1_27_ a_i_add_term1_28_ a_i_add_term1_29_ a_i_add_term1_30_ a_i_add_term1_31_ a_i_add_term1_32_ a_i_add_term1_33_ a_i_add_term1_34_ a_i_add_term1_35_ a_i_add_term1_36_ a_i_add_term1_37_ a_i_add_term1_38_ a_i_add_term2_0_ a_i_add_term2_1_ a_i_add_term2_2_ a_i_add_term2_3_ a_i_add_term2_4_ a_i_add_term2_5_ a_i_add_term2_6_ a_i_add_term2_7_ a_i_add_term2_8_ a_i_add_term2_9_ a_i_add_term2_10_ a_i_add_term2_11_ a_i_add_term2_12_ a_i_add_term2_13_ a_i_add_term2_14_ a_i_add_term2_15_ a_i_add_term2_16_ a_i_add_term2_17_ a_i_add_term2_18_ a_i_add_term2_19_ a_i_add_term2_20_ a_i_add_term2_21_ a_i_add_term2_22_ a_i_add_term2_23_ a_i_add_term2_24_ a_i_add_term2_25_ a_i_add_term2_26_ a_i_add_term2_27_ a_i_add_term2_28_ a_i_add_term2_29_ a_i_add_term2_30_ a_i_add_term2_31_ a_i_add_term2_32_ a_i_add_term2_33_ a_i_add_term2_34_ a_i_add_term2_35_ a_i_add_term2_36_ a_i_add_term2_37_ a_i_add_term2_38_ a_sum_0_ a_sum_1_ a_sum_2_ a_sum_3_ a_sum_4_ a_sum_5_ a_sum_6_ a_sum_7_ a_sum_8_ a_sum_9_ a_sum_10_ a_sum_11_ a_sum_12_ a_sum_13_ a_sum_14_ a_sum_15_ a_sum_16_ a_sum_17_ a_sum_18_ a_sum_19_ a_sum_20_ a_sum_21_ a_sum_22_ a_sum_23_ a_sum_24_ a_sum_25_ a_sum_26_ a_sum_27_ a_sum_28_ a_sum_29_ a_sum_30_ a_sum_31_ a_sum_32_ a_sum_33_ a_sum_34_ a_sum_35_ a_sum_36_ a_sum_37_ a_sum_38_ a_cout
AOAI21X1_1 [_295_ _292_ _297_] _20_ d_lut_OAI21X1
AINVX1_1 [_24__1_] _302_ d_lut_INVX1
AOR2X2_1 [i_add_term2_17_ i_add_term1_17_] _303_ d_lut_OR2X2
ANAND2X1_1 [i_add_term2_17_ i_add_term1_17_] _304_ d_lut_NAND2X1
ANAND3X1_1 [_302_ _304_ _303_] _305_ d_lut_NAND3X1
ANOR2X1_1 [i_add_term2_17_ i_add_term1_17_] _299_ d_lut_NOR2X1
AAND2X2_1 [i_add_term2_17_ i_add_term1_17_] _300_ d_lut_AND2X2
AOAI21X1_2 [_299_ _300_ _24__1_] _301_ d_lut_OAI21X1
ANAND2X1_2 [_301_ _305_] _22__1_ d_lut_NAND2X1
AOAI21X1_3 [_302_ _299_ _304_] _24__2_ d_lut_OAI21X1
AINVX1_2 [_24__2_] _309_ d_lut_INVX1
AOR2X2_2 [i_add_term2_18_ i_add_term1_18_] _310_ d_lut_OR2X2
ANAND2X1_3 [i_add_term2_18_ i_add_term1_18_] _311_ d_lut_NAND2X1
ANAND3X1_2 [_309_ _311_ _310_] _312_ d_lut_NAND3X1
ANOR2X1_2 [i_add_term2_18_ i_add_term1_18_] _306_ d_lut_NOR2X1
AAND2X2_2 [i_add_term2_18_ i_add_term1_18_] _307_ d_lut_AND2X2
AOAI21X1_4 [_306_ _307_ _24__2_] _308_ d_lut_OAI21X1
ANAND2X1_4 [_308_ _312_] _22__2_ d_lut_NAND2X1
AOAI21X1_5 [_309_ _306_ _311_] _24__3_ d_lut_OAI21X1
AINVX1_3 [_25_] _313_ d_lut_INVX1
ANAND2X1_5 [_26_ w_cout_4_] _314_ d_lut_NAND2X1
AOAI21X1_6 [w_cout_4_ _313_ _314_] w_cout_5_ d_lut_OAI21X1
AINVX1_4 [_27__0_] _315_ d_lut_INVX1
ANAND2X1_6 [_28__0_ w_cout_4_] _316_ d_lut_NAND2X1
AOAI21X1_7 [w_cout_4_ _315_ _316_] _0__20_ d_lut_OAI21X1
AINVX1_5 [_27__1_] _317_ d_lut_INVX1
ANAND2X1_7 [w_cout_4_ _28__1_] _318_ d_lut_NAND2X1
AOAI21X1_8 [w_cout_4_ _317_ _318_] _0__21_ d_lut_OAI21X1
AINVX1_6 [_27__2_] _319_ d_lut_INVX1
ANAND2X1_8 [w_cout_4_ _28__2_] _320_ d_lut_NAND2X1
AOAI21X1_9 [w_cout_4_ _319_ _320_] _0__22_ d_lut_OAI21X1
AINVX1_7 [_27__3_] _321_ d_lut_INVX1
ANAND2X1_9 [w_cout_4_ _28__3_] _322_ d_lut_NAND2X1
AOAI21X1_10 [w_cout_4_ _321_ _322_] _0__23_ d_lut_OAI21X1
AINVX1_8 [gnd] _326_ d_lut_INVX1
AOR2X2_3 [i_add_term2_20_ i_add_term1_20_] _327_ d_lut_OR2X2
ANAND2X1_10 [i_add_term2_20_ i_add_term1_20_] _328_ d_lut_NAND2X1
ANAND3X1_3 [_326_ _328_ _327_] _329_ d_lut_NAND3X1
ANOR2X1_3 [i_add_term2_20_ i_add_term1_20_] _323_ d_lut_NOR2X1
AAND2X2_3 [i_add_term2_20_ i_add_term1_20_] _324_ d_lut_AND2X2
AOAI21X1_11 [_323_ _324_ gnd] _325_ d_lut_OAI21X1
ANAND2X1_11 [_325_ _329_] _27__0_ d_lut_NAND2X1
AOAI21X1_12 [_326_ _323_ _328_] _29__1_ d_lut_OAI21X1
AINVX1_9 [_29__3_] _333_ d_lut_INVX1
AOR2X2_4 [i_add_term2_23_ i_add_term1_23_] _334_ d_lut_OR2X2
ANAND2X1_12 [i_add_term2_23_ i_add_term1_23_] _335_ d_lut_NAND2X1
ANAND3X1_4 [_333_ _335_ _334_] _336_ d_lut_NAND3X1
ANOR2X1_4 [i_add_term2_23_ i_add_term1_23_] _330_ d_lut_NOR2X1
AAND2X2_4 [i_add_term2_23_ i_add_term1_23_] _331_ d_lut_AND2X2
AOAI21X1_13 [_330_ _331_ _29__3_] _332_ d_lut_OAI21X1
ANAND2X1_13 [_332_ _336_] _27__3_ d_lut_NAND2X1
AOAI21X1_14 [_333_ _330_ _335_] _25_ d_lut_OAI21X1
AINVX1_10 [_29__1_] _340_ d_lut_INVX1
AOR2X2_5 [i_add_term2_21_ i_add_term1_21_] _341_ d_lut_OR2X2
ANAND2X1_14 [i_add_term2_21_ i_add_term1_21_] _342_ d_lut_NAND2X1
ANAND3X1_5 [_340_ _342_ _341_] _343_ d_lut_NAND3X1
ANOR2X1_5 [i_add_term2_21_ i_add_term1_21_] _337_ d_lut_NOR2X1
AAND2X2_5 [i_add_term2_21_ i_add_term1_21_] _338_ d_lut_AND2X2
AOAI21X1_15 [_337_ _338_ _29__1_] _339_ d_lut_OAI21X1
ANAND2X1_15 [_339_ _343_] _27__1_ d_lut_NAND2X1
AOAI21X1_16 [_340_ _337_ _342_] _29__2_ d_lut_OAI21X1
AINVX1_11 [_29__2_] _347_ d_lut_INVX1
AOR2X2_6 [i_add_term2_22_ i_add_term1_22_] _348_ d_lut_OR2X2
ANAND2X1_16 [i_add_term2_22_ i_add_term1_22_] _349_ d_lut_NAND2X1
ANAND3X1_6 [_347_ _349_ _348_] _350_ d_lut_NAND3X1
ANOR2X1_6 [i_add_term2_22_ i_add_term1_22_] _344_ d_lut_NOR2X1
AAND2X2_6 [i_add_term2_22_ i_add_term1_22_] _345_ d_lut_AND2X2
AOAI21X1_17 [_344_ _345_ _29__2_] _346_ d_lut_OAI21X1
ANAND2X1_17 [_346_ _350_] _27__2_ d_lut_NAND2X1
AOAI21X1_18 [_347_ _344_ _349_] _29__3_ d_lut_OAI21X1
AINVX1_12 [vdd] _354_ d_lut_INVX1
AOR2X2_7 [i_add_term2_20_ i_add_term1_20_] _355_ d_lut_OR2X2
ANAND2X1_18 [i_add_term2_20_ i_add_term1_20_] _356_ d_lut_NAND2X1
ANAND3X1_7 [_354_ _356_ _355_] _357_ d_lut_NAND3X1
ANOR2X1_7 [i_add_term2_20_ i_add_term1_20_] _351_ d_lut_NOR2X1
AAND2X2_7 [i_add_term2_20_ i_add_term1_20_] _352_ d_lut_AND2X2
AOAI21X1_19 [_351_ _352_ vdd] _353_ d_lut_OAI21X1
ANAND2X1_19 [_353_ _357_] _28__0_ d_lut_NAND2X1
AOAI21X1_20 [_354_ _351_ _356_] _30__1_ d_lut_OAI21X1
AINVX1_13 [_30__3_] _361_ d_lut_INVX1
AOR2X2_8 [i_add_term2_23_ i_add_term1_23_] _362_ d_lut_OR2X2
ANAND2X1_20 [i_add_term2_23_ i_add_term1_23_] _363_ d_lut_NAND2X1
ANAND3X1_8 [_361_ _363_ _362_] _364_ d_lut_NAND3X1
ANOR2X1_8 [i_add_term2_23_ i_add_term1_23_] _358_ d_lut_NOR2X1
AAND2X2_8 [i_add_term2_23_ i_add_term1_23_] _359_ d_lut_AND2X2
AOAI21X1_21 [_358_ _359_ _30__3_] _360_ d_lut_OAI21X1
ANAND2X1_21 [_360_ _364_] _28__3_ d_lut_NAND2X1
AOAI21X1_22 [_361_ _358_ _363_] _26_ d_lut_OAI21X1
AINVX1_14 [_30__1_] _368_ d_lut_INVX1
AOR2X2_9 [i_add_term2_21_ i_add_term1_21_] _369_ d_lut_OR2X2
ANAND2X1_22 [i_add_term2_21_ i_add_term1_21_] _370_ d_lut_NAND2X1
ANAND3X1_9 [_368_ _370_ _369_] _371_ d_lut_NAND3X1
ANOR2X1_9 [i_add_term2_21_ i_add_term1_21_] _365_ d_lut_NOR2X1
AAND2X2_9 [i_add_term2_21_ i_add_term1_21_] _366_ d_lut_AND2X2
AOAI21X1_23 [_365_ _366_ _30__1_] _367_ d_lut_OAI21X1
ANAND2X1_23 [_367_ _371_] _28__1_ d_lut_NAND2X1
AOAI21X1_24 [_368_ _365_ _370_] _30__2_ d_lut_OAI21X1
AINVX1_15 [_30__2_] _375_ d_lut_INVX1
AOR2X2_10 [i_add_term2_22_ i_add_term1_22_] _376_ d_lut_OR2X2
ANAND2X1_24 [i_add_term2_22_ i_add_term1_22_] _377_ d_lut_NAND2X1
ANAND3X1_10 [_375_ _377_ _376_] _378_ d_lut_NAND3X1
ANOR2X1_10 [i_add_term2_22_ i_add_term1_22_] _372_ d_lut_NOR2X1
AAND2X2_10 [i_add_term2_22_ i_add_term1_22_] _373_ d_lut_AND2X2
AOAI21X1_25 [_372_ _373_ _30__2_] _374_ d_lut_OAI21X1
ANAND2X1_25 [_374_ _378_] _28__2_ d_lut_NAND2X1
AOAI21X1_26 [_375_ _372_ _377_] _30__3_ d_lut_OAI21X1
AINVX1_16 [_31_] _379_ d_lut_INVX1
ANAND2X1_26 [_32_ w_cout_5_] _380_ d_lut_NAND2X1
AOAI21X1_27 [w_cout_5_ _379_ _380_] w_cout_6_ d_lut_OAI21X1
AINVX1_17 [_33__0_] _381_ d_lut_INVX1
ANAND2X1_27 [_34__0_ w_cout_5_] _382_ d_lut_NAND2X1
AOAI21X1_28 [w_cout_5_ _381_ _382_] _0__24_ d_lut_OAI21X1
AINVX1_18 [_33__1_] _383_ d_lut_INVX1
ANAND2X1_28 [w_cout_5_ _34__1_] _384_ d_lut_NAND2X1
AOAI21X1_29 [w_cout_5_ _383_ _384_] _0__25_ d_lut_OAI21X1
AINVX1_19 [_33__2_] _385_ d_lut_INVX1
ANAND2X1_29 [w_cout_5_ _34__2_] _386_ d_lut_NAND2X1
AOAI21X1_30 [w_cout_5_ _385_ _386_] _0__26_ d_lut_OAI21X1
AINVX1_20 [_33__3_] _387_ d_lut_INVX1
ANAND2X1_30 [w_cout_5_ _34__3_] _388_ d_lut_NAND2X1
AOAI21X1_31 [w_cout_5_ _387_ _388_] _0__27_ d_lut_OAI21X1
AINVX1_21 [gnd] _392_ d_lut_INVX1
AOR2X2_11 [i_add_term2_24_ i_add_term1_24_] _393_ d_lut_OR2X2
ANAND2X1_31 [i_add_term2_24_ i_add_term1_24_] _394_ d_lut_NAND2X1
ANAND3X1_11 [_392_ _394_ _393_] _395_ d_lut_NAND3X1
ANOR2X1_11 [i_add_term2_24_ i_add_term1_24_] _389_ d_lut_NOR2X1
AAND2X2_11 [i_add_term2_24_ i_add_term1_24_] _390_ d_lut_AND2X2
AOAI21X1_32 [_389_ _390_ gnd] _391_ d_lut_OAI21X1
ANAND2X1_32 [_391_ _395_] _33__0_ d_lut_NAND2X1
AOAI21X1_33 [_392_ _389_ _394_] _35__1_ d_lut_OAI21X1
AINVX1_22 [_35__3_] _399_ d_lut_INVX1
AOR2X2_12 [i_add_term2_27_ i_add_term1_27_] _400_ d_lut_OR2X2
ANAND2X1_33 [i_add_term2_27_ i_add_term1_27_] _401_ d_lut_NAND2X1
ANAND3X1_12 [_399_ _401_ _400_] _402_ d_lut_NAND3X1
ANOR2X1_12 [i_add_term2_27_ i_add_term1_27_] _396_ d_lut_NOR2X1
AAND2X2_12 [i_add_term2_27_ i_add_term1_27_] _397_ d_lut_AND2X2
AOAI21X1_34 [_396_ _397_ _35__3_] _398_ d_lut_OAI21X1
ANAND2X1_34 [_398_ _402_] _33__3_ d_lut_NAND2X1
AOAI21X1_35 [_399_ _396_ _401_] _31_ d_lut_OAI21X1
AINVX1_23 [_35__1_] _406_ d_lut_INVX1
AOR2X2_13 [i_add_term2_25_ i_add_term1_25_] _407_ d_lut_OR2X2
ANAND2X1_35 [i_add_term2_25_ i_add_term1_25_] _408_ d_lut_NAND2X1
ANAND3X1_13 [_406_ _408_ _407_] _409_ d_lut_NAND3X1
ANOR2X1_13 [i_add_term2_25_ i_add_term1_25_] _403_ d_lut_NOR2X1
AAND2X2_13 [i_add_term2_25_ i_add_term1_25_] _404_ d_lut_AND2X2
AOAI21X1_36 [_403_ _404_ _35__1_] _405_ d_lut_OAI21X1
ANAND2X1_36 [_405_ _409_] _33__1_ d_lut_NAND2X1
AOAI21X1_37 [_406_ _403_ _408_] _35__2_ d_lut_OAI21X1
AINVX1_24 [_35__2_] _413_ d_lut_INVX1
AOR2X2_14 [i_add_term2_26_ i_add_term1_26_] _414_ d_lut_OR2X2
ANAND2X1_37 [i_add_term2_26_ i_add_term1_26_] _415_ d_lut_NAND2X1
ANAND3X1_14 [_413_ _415_ _414_] _416_ d_lut_NAND3X1
ANOR2X1_14 [i_add_term2_26_ i_add_term1_26_] _410_ d_lut_NOR2X1
AAND2X2_14 [i_add_term2_26_ i_add_term1_26_] _411_ d_lut_AND2X2
AOAI21X1_38 [_410_ _411_ _35__2_] _412_ d_lut_OAI21X1
ANAND2X1_38 [_412_ _416_] _33__2_ d_lut_NAND2X1
AOAI21X1_39 [_413_ _410_ _415_] _35__3_ d_lut_OAI21X1
AINVX1_25 [vdd] _420_ d_lut_INVX1
AOR2X2_15 [i_add_term2_24_ i_add_term1_24_] _421_ d_lut_OR2X2
ANAND2X1_39 [i_add_term2_24_ i_add_term1_24_] _422_ d_lut_NAND2X1
ANAND3X1_15 [_420_ _422_ _421_] _423_ d_lut_NAND3X1
ANOR2X1_15 [i_add_term2_24_ i_add_term1_24_] _417_ d_lut_NOR2X1
AAND2X2_15 [i_add_term2_24_ i_add_term1_24_] _418_ d_lut_AND2X2
AOAI21X1_40 [_417_ _418_ vdd] _419_ d_lut_OAI21X1
ANAND2X1_40 [_419_ _423_] _34__0_ d_lut_NAND2X1
AOAI21X1_41 [_420_ _417_ _422_] _36__1_ d_lut_OAI21X1
AINVX1_26 [_36__3_] _427_ d_lut_INVX1
AOR2X2_16 [i_add_term2_27_ i_add_term1_27_] _428_ d_lut_OR2X2
ANAND2X1_41 [i_add_term2_27_ i_add_term1_27_] _429_ d_lut_NAND2X1
ANAND3X1_16 [_427_ _429_ _428_] _430_ d_lut_NAND3X1
ANOR2X1_16 [i_add_term2_27_ i_add_term1_27_] _424_ d_lut_NOR2X1
AAND2X2_16 [i_add_term2_27_ i_add_term1_27_] _425_ d_lut_AND2X2
AOAI21X1_42 [_424_ _425_ _36__3_] _426_ d_lut_OAI21X1
ANAND2X1_42 [_426_ _430_] _34__3_ d_lut_NAND2X1
AOAI21X1_43 [_427_ _424_ _429_] _32_ d_lut_OAI21X1
AINVX1_27 [_36__1_] _434_ d_lut_INVX1
AOR2X2_17 [i_add_term2_25_ i_add_term1_25_] _435_ d_lut_OR2X2
ANAND2X1_43 [i_add_term2_25_ i_add_term1_25_] _436_ d_lut_NAND2X1
ANAND3X1_17 [_434_ _436_ _435_] _437_ d_lut_NAND3X1
ANOR2X1_17 [i_add_term2_25_ i_add_term1_25_] _431_ d_lut_NOR2X1
AAND2X2_17 [i_add_term2_25_ i_add_term1_25_] _432_ d_lut_AND2X2
AOAI21X1_44 [_431_ _432_ _36__1_] _433_ d_lut_OAI21X1
ANAND2X1_44 [_433_ _437_] _34__1_ d_lut_NAND2X1
AOAI21X1_45 [_434_ _431_ _436_] _36__2_ d_lut_OAI21X1
AINVX1_28 [_36__2_] _441_ d_lut_INVX1
AOR2X2_18 [i_add_term2_26_ i_add_term1_26_] _442_ d_lut_OR2X2
ANAND2X1_45 [i_add_term2_26_ i_add_term1_26_] _443_ d_lut_NAND2X1
ANAND3X1_18 [_441_ _443_ _442_] _444_ d_lut_NAND3X1
ANOR2X1_18 [i_add_term2_26_ i_add_term1_26_] _438_ d_lut_NOR2X1
AAND2X2_18 [i_add_term2_26_ i_add_term1_26_] _439_ d_lut_AND2X2
AOAI21X1_46 [_438_ _439_ _36__2_] _440_ d_lut_OAI21X1
ANAND2X1_46 [_440_ _444_] _34__2_ d_lut_NAND2X1
AOAI21X1_47 [_441_ _438_ _443_] _36__3_ d_lut_OAI21X1
AINVX1_29 [_37_] _445_ d_lut_INVX1
ANAND2X1_47 [_38_ w_cout_6_] _446_ d_lut_NAND2X1
AOAI21X1_48 [w_cout_6_ _445_ _446_] w_cout_7_ d_lut_OAI21X1
AINVX1_30 [_39__0_] _447_ d_lut_INVX1
ANAND2X1_48 [_40__0_ w_cout_6_] _448_ d_lut_NAND2X1
AOAI21X1_49 [w_cout_6_ _447_ _448_] _0__28_ d_lut_OAI21X1
AINVX1_31 [_39__1_] _449_ d_lut_INVX1
ANAND2X1_49 [w_cout_6_ _40__1_] _450_ d_lut_NAND2X1
AOAI21X1_50 [w_cout_6_ _449_ _450_] _0__29_ d_lut_OAI21X1
AINVX1_32 [_39__2_] _451_ d_lut_INVX1
ANAND2X1_50 [w_cout_6_ _40__2_] _452_ d_lut_NAND2X1
AOAI21X1_51 [w_cout_6_ _451_ _452_] _0__30_ d_lut_OAI21X1
AINVX1_33 [_39__3_] _453_ d_lut_INVX1
ANAND2X1_51 [w_cout_6_ _40__3_] _454_ d_lut_NAND2X1
AOAI21X1_52 [w_cout_6_ _453_ _454_] _0__31_ d_lut_OAI21X1
AINVX1_34 [gnd] _458_ d_lut_INVX1
AOR2X2_19 [i_add_term2_28_ i_add_term1_28_] _459_ d_lut_OR2X2
ANAND2X1_52 [i_add_term2_28_ i_add_term1_28_] _460_ d_lut_NAND2X1
ANAND3X1_19 [_458_ _460_ _459_] _461_ d_lut_NAND3X1
ANOR2X1_19 [i_add_term2_28_ i_add_term1_28_] _455_ d_lut_NOR2X1
AAND2X2_19 [i_add_term2_28_ i_add_term1_28_] _456_ d_lut_AND2X2
AOAI21X1_53 [_455_ _456_ gnd] _457_ d_lut_OAI21X1
ANAND2X1_53 [_457_ _461_] _39__0_ d_lut_NAND2X1
AOAI21X1_54 [_458_ _455_ _460_] _41__1_ d_lut_OAI21X1
AINVX1_35 [_41__3_] _465_ d_lut_INVX1
AOR2X2_20 [i_add_term2_31_ i_add_term1_31_] _466_ d_lut_OR2X2
ANAND2X1_54 [i_add_term2_31_ i_add_term1_31_] _467_ d_lut_NAND2X1
ANAND3X1_20 [_465_ _467_ _466_] _468_ d_lut_NAND3X1
ANOR2X1_20 [i_add_term2_31_ i_add_term1_31_] _462_ d_lut_NOR2X1
AAND2X2_20 [i_add_term2_31_ i_add_term1_31_] _463_ d_lut_AND2X2
AOAI21X1_55 [_462_ _463_ _41__3_] _464_ d_lut_OAI21X1
ANAND2X1_55 [_464_ _468_] _39__3_ d_lut_NAND2X1
AOAI21X1_56 [_465_ _462_ _467_] _37_ d_lut_OAI21X1
AINVX1_36 [_41__1_] _472_ d_lut_INVX1
AOR2X2_21 [i_add_term2_29_ i_add_term1_29_] _473_ d_lut_OR2X2
ANAND2X1_56 [i_add_term2_29_ i_add_term1_29_] _474_ d_lut_NAND2X1
ANAND3X1_21 [_472_ _474_ _473_] _475_ d_lut_NAND3X1
ANOR2X1_21 [i_add_term2_29_ i_add_term1_29_] _469_ d_lut_NOR2X1
AAND2X2_21 [i_add_term2_29_ i_add_term1_29_] _470_ d_lut_AND2X2
AOAI21X1_57 [_469_ _470_ _41__1_] _471_ d_lut_OAI21X1
ANAND2X1_57 [_471_ _475_] _39__1_ d_lut_NAND2X1
AOAI21X1_58 [_472_ _469_ _474_] _41__2_ d_lut_OAI21X1
AINVX1_37 [_41__2_] _479_ d_lut_INVX1
AOR2X2_22 [i_add_term2_30_ i_add_term1_30_] _480_ d_lut_OR2X2
ANAND2X1_58 [i_add_term2_30_ i_add_term1_30_] _481_ d_lut_NAND2X1
ANAND3X1_22 [_479_ _481_ _480_] _482_ d_lut_NAND3X1
ANOR2X1_22 [i_add_term2_30_ i_add_term1_30_] _476_ d_lut_NOR2X1
AAND2X2_22 [i_add_term2_30_ i_add_term1_30_] _477_ d_lut_AND2X2
AOAI21X1_59 [_476_ _477_ _41__2_] _478_ d_lut_OAI21X1
ANAND2X1_59 [_478_ _482_] _39__2_ d_lut_NAND2X1
AOAI21X1_60 [_479_ _476_ _481_] _41__3_ d_lut_OAI21X1
AINVX1_38 [vdd] _486_ d_lut_INVX1
AOR2X2_23 [i_add_term2_28_ i_add_term1_28_] _487_ d_lut_OR2X2
ANAND2X1_60 [i_add_term2_28_ i_add_term1_28_] _488_ d_lut_NAND2X1
ANAND3X1_23 [_486_ _488_ _487_] _489_ d_lut_NAND3X1
ANOR2X1_23 [i_add_term2_28_ i_add_term1_28_] _483_ d_lut_NOR2X1
AAND2X2_23 [i_add_term2_28_ i_add_term1_28_] _484_ d_lut_AND2X2
AOAI21X1_61 [_483_ _484_ vdd] _485_ d_lut_OAI21X1
ANAND2X1_61 [_485_ _489_] _40__0_ d_lut_NAND2X1
AOAI21X1_62 [_486_ _483_ _488_] _42__1_ d_lut_OAI21X1
AINVX1_39 [_42__3_] _493_ d_lut_INVX1
AOR2X2_24 [i_add_term2_31_ i_add_term1_31_] _494_ d_lut_OR2X2
ANAND2X1_62 [i_add_term2_31_ i_add_term1_31_] _495_ d_lut_NAND2X1
ANAND3X1_24 [_493_ _495_ _494_] _496_ d_lut_NAND3X1
ANOR2X1_24 [i_add_term2_31_ i_add_term1_31_] _490_ d_lut_NOR2X1
AAND2X2_24 [i_add_term2_31_ i_add_term1_31_] _491_ d_lut_AND2X2
AOAI21X1_63 [_490_ _491_ _42__3_] _492_ d_lut_OAI21X1
ANAND2X1_63 [_492_ _496_] _40__3_ d_lut_NAND2X1
AOAI21X1_64 [_493_ _490_ _495_] _38_ d_lut_OAI21X1
AINVX1_40 [_42__1_] _500_ d_lut_INVX1
AOR2X2_25 [i_add_term2_29_ i_add_term1_29_] _501_ d_lut_OR2X2
ANAND2X1_64 [i_add_term2_29_ i_add_term1_29_] _502_ d_lut_NAND2X1
ANAND3X1_25 [_500_ _502_ _501_] _503_ d_lut_NAND3X1
ANOR2X1_25 [i_add_term2_29_ i_add_term1_29_] _497_ d_lut_NOR2X1
AAND2X2_25 [i_add_term2_29_ i_add_term1_29_] _498_ d_lut_AND2X2
AOAI21X1_65 [_497_ _498_ _42__1_] _499_ d_lut_OAI21X1
ANAND2X1_65 [_499_ _503_] _40__1_ d_lut_NAND2X1
AOAI21X1_66 [_500_ _497_ _502_] _42__2_ d_lut_OAI21X1
AINVX1_41 [_42__2_] _507_ d_lut_INVX1
AOR2X2_26 [i_add_term2_30_ i_add_term1_30_] _508_ d_lut_OR2X2
ANAND2X1_66 [i_add_term2_30_ i_add_term1_30_] _509_ d_lut_NAND2X1
ANAND3X1_26 [_507_ _509_ _508_] _510_ d_lut_NAND3X1
ANOR2X1_26 [i_add_term2_30_ i_add_term1_30_] _504_ d_lut_NOR2X1
AAND2X2_26 [i_add_term2_30_ i_add_term1_30_] _505_ d_lut_AND2X2
AOAI21X1_67 [_504_ _505_ _42__2_] _506_ d_lut_OAI21X1
ANAND2X1_67 [_506_ _510_] _40__2_ d_lut_NAND2X1
AOAI21X1_68 [_507_ _504_ _509_] _42__3_ d_lut_OAI21X1
AINVX1_42 [_43_] _511_ d_lut_INVX1
ANAND2X1_68 [_44_ w_cout_7_] _512_ d_lut_NAND2X1
AOAI21X1_69 [w_cout_7_ _511_ _512_] csa_inst.cin d_lut_OAI21X1
AINVX1_43 [_45__0_] _513_ d_lut_INVX1
ANAND2X1_69 [_46__0_ w_cout_7_] _514_ d_lut_NAND2X1
AOAI21X1_70 [w_cout_7_ _513_ _514_] _0__32_ d_lut_OAI21X1
AINVX1_44 [_45__1_] _515_ d_lut_INVX1
ANAND2X1_70 [w_cout_7_ _46__1_] _516_ d_lut_NAND2X1
AOAI21X1_71 [w_cout_7_ _515_ _516_] _0__33_ d_lut_OAI21X1
AINVX1_45 [_45__2_] _517_ d_lut_INVX1
ANAND2X1_71 [w_cout_7_ _46__2_] _518_ d_lut_NAND2X1
AOAI21X1_72 [w_cout_7_ _517_ _518_] _0__34_ d_lut_OAI21X1
AINVX1_46 [_45__3_] _519_ d_lut_INVX1
ANAND2X1_72 [w_cout_7_ _46__3_] _520_ d_lut_NAND2X1
AOAI21X1_73 [w_cout_7_ _519_ _520_] _0__35_ d_lut_OAI21X1
AINVX1_47 [gnd] _524_ d_lut_INVX1
AOR2X2_27 [i_add_term2_32_ i_add_term1_32_] _525_ d_lut_OR2X2
ANAND2X1_73 [i_add_term2_32_ i_add_term1_32_] _526_ d_lut_NAND2X1
ANAND3X1_27 [_524_ _526_ _525_] _527_ d_lut_NAND3X1
ANOR2X1_27 [i_add_term2_32_ i_add_term1_32_] _521_ d_lut_NOR2X1
AAND2X2_27 [i_add_term2_32_ i_add_term1_32_] _522_ d_lut_AND2X2
AOAI21X1_74 [_521_ _522_ gnd] _523_ d_lut_OAI21X1
ANAND2X1_74 [_523_ _527_] _45__0_ d_lut_NAND2X1
AOAI21X1_75 [_524_ _521_ _526_] _47__1_ d_lut_OAI21X1
AINVX1_48 [_47__3_] _531_ d_lut_INVX1
AOR2X2_28 [i_add_term2_35_ i_add_term1_35_] _532_ d_lut_OR2X2
ANAND2X1_75 [i_add_term2_35_ i_add_term1_35_] _533_ d_lut_NAND2X1
ANAND3X1_28 [_531_ _533_ _532_] _534_ d_lut_NAND3X1
ANOR2X1_28 [i_add_term2_35_ i_add_term1_35_] _528_ d_lut_NOR2X1
AAND2X2_28 [i_add_term2_35_ i_add_term1_35_] _529_ d_lut_AND2X2
AOAI21X1_76 [_528_ _529_ _47__3_] _530_ d_lut_OAI21X1
ANAND2X1_76 [_530_ _534_] _45__3_ d_lut_NAND2X1
AOAI21X1_77 [_531_ _528_ _533_] _43_ d_lut_OAI21X1
AINVX1_49 [_47__1_] _538_ d_lut_INVX1
AOR2X2_29 [i_add_term2_33_ i_add_term1_33_] _539_ d_lut_OR2X2
ANAND2X1_77 [i_add_term2_33_ i_add_term1_33_] _540_ d_lut_NAND2X1
ANAND3X1_29 [_538_ _540_ _539_] _541_ d_lut_NAND3X1
ANOR2X1_29 [i_add_term2_33_ i_add_term1_33_] _535_ d_lut_NOR2X1
AAND2X2_29 [i_add_term2_33_ i_add_term1_33_] _536_ d_lut_AND2X2
AOAI21X1_78 [_535_ _536_ _47__1_] _537_ d_lut_OAI21X1
ANAND2X1_78 [_537_ _541_] _45__1_ d_lut_NAND2X1
AOAI21X1_79 [_538_ _535_ _540_] _47__2_ d_lut_OAI21X1
AINVX1_50 [_47__2_] _545_ d_lut_INVX1
AOR2X2_30 [i_add_term2_34_ i_add_term1_34_] _546_ d_lut_OR2X2
ANAND2X1_79 [i_add_term2_34_ i_add_term1_34_] _547_ d_lut_NAND2X1
ANAND3X1_30 [_545_ _547_ _546_] _548_ d_lut_NAND3X1
ANOR2X1_30 [i_add_term2_34_ i_add_term1_34_] _542_ d_lut_NOR2X1
AAND2X2_30 [i_add_term2_34_ i_add_term1_34_] _543_ d_lut_AND2X2
AOAI21X1_80 [_542_ _543_ _47__2_] _544_ d_lut_OAI21X1
ANAND2X1_80 [_544_ _548_] _45__2_ d_lut_NAND2X1
AOAI21X1_81 [_545_ _542_ _547_] _47__3_ d_lut_OAI21X1
AINVX1_51 [vdd] _552_ d_lut_INVX1
AOR2X2_31 [i_add_term2_32_ i_add_term1_32_] _553_ d_lut_OR2X2
ANAND2X1_81 [i_add_term2_32_ i_add_term1_32_] _554_ d_lut_NAND2X1
ANAND3X1_31 [_552_ _554_ _553_] _555_ d_lut_NAND3X1
ANOR2X1_31 [i_add_term2_32_ i_add_term1_32_] _549_ d_lut_NOR2X1
AAND2X2_31 [i_add_term2_32_ i_add_term1_32_] _550_ d_lut_AND2X2
AOAI21X1_82 [_549_ _550_ vdd] _551_ d_lut_OAI21X1
ANAND2X1_82 [_551_ _555_] _46__0_ d_lut_NAND2X1
AOAI21X1_83 [_552_ _549_ _554_] _48__1_ d_lut_OAI21X1
AINVX1_52 [_48__3_] _559_ d_lut_INVX1
AOR2X2_32 [i_add_term2_35_ i_add_term1_35_] _560_ d_lut_OR2X2
ANAND2X1_83 [i_add_term2_35_ i_add_term1_35_] _561_ d_lut_NAND2X1
ANAND3X1_32 [_559_ _561_ _560_] _562_ d_lut_NAND3X1
ANOR2X1_32 [i_add_term2_35_ i_add_term1_35_] _556_ d_lut_NOR2X1
AAND2X2_32 [i_add_term2_35_ i_add_term1_35_] _557_ d_lut_AND2X2
AOAI21X1_84 [_556_ _557_ _48__3_] _558_ d_lut_OAI21X1
ANAND2X1_84 [_558_ _562_] _46__3_ d_lut_NAND2X1
AOAI21X1_85 [_559_ _556_ _561_] _44_ d_lut_OAI21X1
AINVX1_53 [_48__1_] _566_ d_lut_INVX1
AOR2X2_33 [i_add_term2_33_ i_add_term1_33_] _567_ d_lut_OR2X2
ANAND2X1_85 [i_add_term2_33_ i_add_term1_33_] _568_ d_lut_NAND2X1
ANAND3X1_33 [_566_ _568_ _567_] _569_ d_lut_NAND3X1
ANOR2X1_33 [i_add_term2_33_ i_add_term1_33_] _563_ d_lut_NOR2X1
AAND2X2_33 [i_add_term2_33_ i_add_term1_33_] _564_ d_lut_AND2X2
AOAI21X1_86 [_563_ _564_ _48__1_] _565_ d_lut_OAI21X1
ANAND2X1_86 [_565_ _569_] _46__1_ d_lut_NAND2X1
AOAI21X1_87 [_566_ _563_ _568_] _48__2_ d_lut_OAI21X1
AINVX1_54 [_48__2_] _573_ d_lut_INVX1
AOR2X2_34 [i_add_term2_34_ i_add_term1_34_] _574_ d_lut_OR2X2
ANAND2X1_87 [i_add_term2_34_ i_add_term1_34_] _575_ d_lut_NAND2X1
ANAND3X1_34 [_573_ _575_ _574_] _576_ d_lut_NAND3X1
ANOR2X1_34 [i_add_term2_34_ i_add_term1_34_] _570_ d_lut_NOR2X1
AAND2X2_34 [i_add_term2_34_ i_add_term1_34_] _571_ d_lut_AND2X2
AOAI21X1_88 [_570_ _571_ _48__2_] _572_ d_lut_OAI21X1
ANAND2X1_88 [_572_ _576_] _46__2_ d_lut_NAND2X1
AOAI21X1_89 [_573_ _570_ _575_] _48__3_ d_lut_OAI21X1
AINVX1_55 [csa_inst.cout0_0] _577_ d_lut_INVX1
ANAND2X1_89 [csa_inst.cout0_1 csa_inst.cin] _578_ d_lut_NAND2X1
AOAI21X1_90 [csa_inst.cin _577_ _578_] w_cout_9_ d_lut_OAI21X1
AINVX1_56 [gnd] _580_ d_lut_INVX1
ANAND2X1_90 [gnd gnd] _581_ d_lut_NAND2X1
ANOR2X1_35 [gnd gnd] _579_ d_lut_NOR2X1
AOAI21X1_91 [_580_ _579_ _581_] csa_inst.rca0_0.fa0.o_carry d_lut_OAI21X1
AINVX1_57 [csa_inst.rca0_0.fa31.i_carry] _583_ d_lut_INVX1
ANAND2X1_91 [gnd gnd] _584_ d_lut_NAND2X1
ANOR2X1_36 [gnd gnd] _582_ d_lut_NOR2X1
AOAI21X1_92 [_583_ _582_ _584_] csa_inst.cout0_0 d_lut_OAI21X1
AINVX1_58 [csa_inst.rca0_0.fa0.o_carry] _586_ d_lut_INVX1
ANAND2X1_92 [gnd gnd] _587_ d_lut_NAND2X1
ANOR2X1_37 [gnd gnd] _585_ d_lut_NOR2X1
AOAI21X1_93 [_586_ _585_ _587_] csa_inst.rca0_0.fa_1_.o_carry d_lut_OAI21X1
AINVX1_59 [csa_inst.rca0_0.fa_1_.o_carry] _589_ d_lut_INVX1
ANAND2X1_93 [gnd gnd] _590_ d_lut_NAND2X1
ANOR2X1_38 [gnd gnd] _588_ d_lut_NOR2X1
AOAI21X1_94 [_589_ _588_ _590_] csa_inst.rca0_0.fa31.i_carry d_lut_OAI21X1
AINVX1_60 [vdd] _592_ d_lut_INVX1
ANAND2X1_94 [gnd gnd] _593_ d_lut_NAND2X1
ANOR2X1_39 [gnd gnd] _591_ d_lut_NOR2X1
AOAI21X1_95 [_592_ _591_ _593_] csa_inst.rca0_1.fa0.o_carry d_lut_OAI21X1
AINVX1_61 [csa_inst.rca0_1.fa31.i_carry] _595_ d_lut_INVX1
ANAND2X1_95 [gnd gnd] _596_ d_lut_NAND2X1
ANOR2X1_40 [gnd gnd] _594_ d_lut_NOR2X1
AOAI21X1_96 [_595_ _594_ _596_] csa_inst.cout0_1 d_lut_OAI21X1
AINVX1_62 [csa_inst.rca0_1.fa0.o_carry] _598_ d_lut_INVX1
ANAND2X1_96 [gnd gnd] _599_ d_lut_NAND2X1
ANOR2X1_41 [gnd gnd] _597_ d_lut_NOR2X1
AOAI21X1_97 [_598_ _597_ _599_] csa_inst.rca0_1.fa_1_.o_carry d_lut_OAI21X1
AINVX1_63 [csa_inst.rca0_1.fa_1_.o_carry] _601_ d_lut_INVX1
ANAND2X1_97 [gnd gnd] _602_ d_lut_NAND2X1
ANOR2X1_42 [gnd gnd] _600_ d_lut_NOR2X1
AOAI21X1_98 [_601_ _600_ _602_] csa_inst.rca0_1.fa31.i_carry d_lut_OAI21X1
AINVX1_64 [gnd] _606_ d_lut_INVX1
AOR2X2_35 [i_add_term2_0_ i_add_term1_0_] _607_ d_lut_OR2X2
ANAND2X1_98 [i_add_term2_0_ i_add_term1_0_] _608_ d_lut_NAND2X1
ANAND3X1_35 [_606_ _608_ _607_] _609_ d_lut_NAND3X1
ANOR2X1_43 [i_add_term2_0_ i_add_term1_0_] _603_ d_lut_NOR2X1
AAND2X2_35 [i_add_term2_0_ i_add_term1_0_] _604_ d_lut_AND2X2
AOAI21X1_99 [_603_ _604_ gnd] _605_ d_lut_OAI21X1
ANAND2X1_99 [_605_ _609_] rca_inst.fa0.o_sum d_lut_NAND2X1
AOAI21X1_100 [_606_ _603_ _608_] rca_inst.fa0.o_carry d_lut_OAI21X1
AINVX1_65 [rca_inst.fa31.i_carry] _613_ d_lut_INVX1
AOR2X2_36 [i_add_term2_3_ i_add_term1_3_] _614_ d_lut_OR2X2
ANAND2X1_100 [i_add_term2_3_ i_add_term1_3_] _615_ d_lut_NAND2X1
ANAND3X1_36 [_613_ _615_ _614_] _616_ d_lut_NAND3X1
ANOR2X1_44 [i_add_term2_3_ i_add_term1_3_] _610_ d_lut_NOR2X1
AAND2X2_36 [i_add_term2_3_ i_add_term1_3_] _611_ d_lut_AND2X2
AOAI21X1_101 [_610_ _611_ rca_inst.fa31.i_carry] _612_ d_lut_OAI21X1
ANAND2X1_101 [_612_ _616_] rca_inst.fa31.o_sum d_lut_NAND2X1
AOAI21X1_102 [_613_ _610_ _615_] rca_inst.cout d_lut_OAI21X1
AINVX1_66 [rca_inst.fa0.o_carry] _620_ d_lut_INVX1
AOR2X2_37 [i_add_term2_1_ i_add_term1_1_] _621_ d_lut_OR2X2
ANAND2X1_102 [i_add_term2_1_ i_add_term1_1_] _622_ d_lut_NAND2X1
ANAND3X1_37 [_620_ _622_ _621_] _623_ d_lut_NAND3X1
ANOR2X1_45 [i_add_term2_1_ i_add_term1_1_] _617_ d_lut_NOR2X1
AAND2X2_37 [i_add_term2_1_ i_add_term1_1_] _618_ d_lut_AND2X2
AOAI21X1_103 [_617_ _618_ rca_inst.fa0.o_carry] _619_ d_lut_OAI21X1
ANAND2X1_103 [_619_ _623_] rca_inst.fa_1_.o_sum d_lut_NAND2X1
AOAI21X1_104 [_620_ _617_ _622_] rca_inst.fa_1_.o_carry d_lut_OAI21X1
AINVX1_67 [rca_inst.fa_1_.o_carry] _627_ d_lut_INVX1
AOR2X2_38 [i_add_term2_2_ i_add_term1_2_] _628_ d_lut_OR2X2
ANAND2X1_104 [i_add_term2_2_ i_add_term1_2_] _629_ d_lut_NAND2X1
ANAND3X1_38 [_627_ _629_ _628_] _630_ d_lut_NAND3X1
ANOR2X1_46 [i_add_term2_2_ i_add_term1_2_] _624_ d_lut_NOR2X1
AAND2X2_38 [i_add_term2_2_ i_add_term1_2_] _625_ d_lut_AND2X2
AOAI21X1_105 [_624_ _625_ rca_inst.fa_1_.o_carry] _626_ d_lut_OAI21X1
ANAND2X1_105 [_626_ _630_] rca_inst.fa_2_.o_sum d_lut_NAND2X1
AOAI21X1_106 [_627_ _624_ _629_] rca_inst.fa31.i_carry d_lut_OAI21X1
ABUFX2_1 [w_cout_9_] cout d_lut_BUFX2
ABUFX2_2 [rca_inst.fa0.o_sum] sum_0_ d_lut_BUFX2
ABUFX2_3 [rca_inst.fa_1_.o_sum] sum_1_ d_lut_BUFX2
ABUFX2_4 [rca_inst.fa_2_.o_sum] sum_2_ d_lut_BUFX2
ABUFX2_5 [rca_inst.fa31.o_sum] sum_3_ d_lut_BUFX2
ABUFX2_6 [_0__4_] sum_4_ d_lut_BUFX2
ABUFX2_7 [_0__5_] sum_5_ d_lut_BUFX2
ABUFX2_8 [_0__6_] sum_6_ d_lut_BUFX2
ABUFX2_9 [_0__7_] sum_7_ d_lut_BUFX2
ABUFX2_10 [_0__8_] sum_8_ d_lut_BUFX2
ABUFX2_11 [_0__9_] sum_9_ d_lut_BUFX2
ABUFX2_12 [_0__10_] sum_10_ d_lut_BUFX2
ABUFX2_13 [_0__11_] sum_11_ d_lut_BUFX2
ABUFX2_14 [_0__12_] sum_12_ d_lut_BUFX2
ABUFX2_15 [_0__13_] sum_13_ d_lut_BUFX2
ABUFX2_16 [_0__14_] sum_14_ d_lut_BUFX2
ABUFX2_17 [_0__15_] sum_15_ d_lut_BUFX2
ABUFX2_18 [_0__16_] sum_16_ d_lut_BUFX2
ABUFX2_19 [_0__17_] sum_17_ d_lut_BUFX2
ABUFX2_20 [_0__18_] sum_18_ d_lut_BUFX2
ABUFX2_21 [_0__19_] sum_19_ d_lut_BUFX2
ABUFX2_22 [_0__20_] sum_20_ d_lut_BUFX2
ABUFX2_23 [_0__21_] sum_21_ d_lut_BUFX2
ABUFX2_24 [_0__22_] sum_22_ d_lut_BUFX2
ABUFX2_25 [_0__23_] sum_23_ d_lut_BUFX2
ABUFX2_26 [_0__24_] sum_24_ d_lut_BUFX2
ABUFX2_27 [_0__25_] sum_25_ d_lut_BUFX2
ABUFX2_28 [_0__26_] sum_26_ d_lut_BUFX2
ABUFX2_29 [_0__27_] sum_27_ d_lut_BUFX2
ABUFX2_30 [_0__28_] sum_28_ d_lut_BUFX2
ABUFX2_31 [_0__29_] sum_29_ d_lut_BUFX2
ABUFX2_32 [_0__30_] sum_30_ d_lut_BUFX2
ABUFX2_33 [_0__31_] sum_31_ d_lut_BUFX2
ABUFX2_34 [_0__32_] sum_32_ d_lut_BUFX2
ABUFX2_35 [_0__33_] sum_33_ d_lut_BUFX2
ABUFX2_36 [_0__34_] sum_34_ d_lut_BUFX2
ABUFX2_37 [_0__35_] sum_35_ d_lut_BUFX2
ABUFX2_38 [gnd] sum_36_ d_lut_BUFX2
ABUFX2_39 [gnd] sum_37_ d_lut_BUFX2
ABUFX2_40 [gnd] sum_38_ d_lut_BUFX2
AINVX1_68 [_1_] _49_ d_lut_INVX1
ANAND2X1_106 [_2_ rca_inst.cout] _50_ d_lut_NAND2X1
AOAI21X1_107 [rca_inst.cout _49_ _50_] w_cout_1_ d_lut_OAI21X1
AINVX1_69 [_3__0_] _51_ d_lut_INVX1
ANAND2X1_107 [_4__0_ rca_inst.cout] _52_ d_lut_NAND2X1
AOAI21X1_108 [rca_inst.cout _51_ _52_] _0__4_ d_lut_OAI21X1
AINVX1_70 [_3__1_] _53_ d_lut_INVX1
ANAND2X1_108 [rca_inst.cout _4__1_] _54_ d_lut_NAND2X1
AOAI21X1_109 [rca_inst.cout _53_ _54_] _0__5_ d_lut_OAI21X1
AINVX1_71 [_3__2_] _55_ d_lut_INVX1
ANAND2X1_109 [rca_inst.cout _4__2_] _56_ d_lut_NAND2X1
AOAI21X1_110 [rca_inst.cout _55_ _56_] _0__6_ d_lut_OAI21X1
AINVX1_72 [_3__3_] _57_ d_lut_INVX1
ANAND2X1_110 [rca_inst.cout _4__3_] _58_ d_lut_NAND2X1
AOAI21X1_111 [rca_inst.cout _57_ _58_] _0__7_ d_lut_OAI21X1
AINVX1_73 [gnd] _62_ d_lut_INVX1
AOR2X2_39 [i_add_term2_4_ i_add_term1_4_] _63_ d_lut_OR2X2
ANAND2X1_111 [i_add_term2_4_ i_add_term1_4_] _64_ d_lut_NAND2X1
ANAND3X1_39 [_62_ _64_ _63_] _65_ d_lut_NAND3X1
ANOR2X1_47 [i_add_term2_4_ i_add_term1_4_] _59_ d_lut_NOR2X1
AAND2X2_39 [i_add_term2_4_ i_add_term1_4_] _60_ d_lut_AND2X2
AOAI21X1_112 [_59_ _60_ gnd] _61_ d_lut_OAI21X1
ANAND2X1_112 [_61_ _65_] _3__0_ d_lut_NAND2X1
AOAI21X1_113 [_62_ _59_ _64_] _5__1_ d_lut_OAI21X1
AINVX1_74 [_5__3_] _69_ d_lut_INVX1
AOR2X2_40 [i_add_term2_7_ i_add_term1_7_] _70_ d_lut_OR2X2
ANAND2X1_113 [i_add_term2_7_ i_add_term1_7_] _71_ d_lut_NAND2X1
ANAND3X1_40 [_69_ _71_ _70_] _72_ d_lut_NAND3X1
ANOR2X1_48 [i_add_term2_7_ i_add_term1_7_] _66_ d_lut_NOR2X1
AAND2X2_40 [i_add_term2_7_ i_add_term1_7_] _67_ d_lut_AND2X2
AOAI21X1_114 [_66_ _67_ _5__3_] _68_ d_lut_OAI21X1
ANAND2X1_114 [_68_ _72_] _3__3_ d_lut_NAND2X1
AOAI21X1_115 [_69_ _66_ _71_] _1_ d_lut_OAI21X1
AINVX1_75 [_5__1_] _76_ d_lut_INVX1
AOR2X2_41 [i_add_term2_5_ i_add_term1_5_] _77_ d_lut_OR2X2
ANAND2X1_115 [i_add_term2_5_ i_add_term1_5_] _78_ d_lut_NAND2X1
ANAND3X1_41 [_76_ _78_ _77_] _79_ d_lut_NAND3X1
ANOR2X1_49 [i_add_term2_5_ i_add_term1_5_] _73_ d_lut_NOR2X1
AAND2X2_41 [i_add_term2_5_ i_add_term1_5_] _74_ d_lut_AND2X2
AOAI21X1_116 [_73_ _74_ _5__1_] _75_ d_lut_OAI21X1
ANAND2X1_116 [_75_ _79_] _3__1_ d_lut_NAND2X1
AOAI21X1_117 [_76_ _73_ _78_] _5__2_ d_lut_OAI21X1
AINVX1_76 [_5__2_] _83_ d_lut_INVX1
AOR2X2_42 [i_add_term2_6_ i_add_term1_6_] _84_ d_lut_OR2X2
ANAND2X1_117 [i_add_term2_6_ i_add_term1_6_] _85_ d_lut_NAND2X1
ANAND3X1_42 [_83_ _85_ _84_] _86_ d_lut_NAND3X1
ANOR2X1_50 [i_add_term2_6_ i_add_term1_6_] _80_ d_lut_NOR2X1
AAND2X2_42 [i_add_term2_6_ i_add_term1_6_] _81_ d_lut_AND2X2