* XSpice netlist created from SPICE and liberty sources by spi2xspice.py
*SPICE netlist created from BLIF module csa_50bit by blif2BSpice
.subckt csa_50bit a_vdd a_gnd a_i_add_term1_0_ a_i_add_term1_1_ a_i_add_term1_2_ a_i_add_term1_3_ a_i_add_term1_4_ a_i_add_term1_5_ a_i_add_term1_6_ a_i_add_term1_7_ a_i_add_term1_8_ a_i_add_term1_9_ a_i_add_term1_10_ a_i_add_term1_11_ a_i_add_term1_12_ a_i_add_term1_13_ a_i_add_term1_14_ a_i_add_term1_15_ a_i_add_term1_16_ a_i_add_term1_17_ a_i_add_term1_18_ a_i_add_term1_19_ a_i_add_term1_20_ a_i_add_term1_21_ a_i_add_term1_22_ a_i_add_term1_23_ a_i_add_term1_24_ a_i_add_term1_25_ a_i_add_term1_26_ a_i_add_term1_27_ a_i_add_term1_28_ a_i_add_term1_29_ a_i_add_term1_30_ a_i_add_term1_31_ a_i_add_term1_32_ a_i_add_term1_33_ a_i_add_term1_34_ a_i_add_term1_35_ a_i_add_term1_36_ a_i_add_term1_37_ a_i_add_term1_38_ a_i_add_term1_39_ a_i_add_term1_40_ a_i_add_term1_41_ a_i_add_term1_42_ a_i_add_term1_43_ a_i_add_term1_44_ a_i_add_term1_45_ a_i_add_term1_46_ a_i_add_term1_47_ a_i_add_term1_48_ a_i_add_term1_49_ a_i_add_term2_0_ a_i_add_term2_1_ a_i_add_term2_2_ a_i_add_term2_3_ a_i_add_term2_4_ a_i_add_term2_5_ a_i_add_term2_6_ a_i_add_term2_7_ a_i_add_term2_8_ a_i_add_term2_9_ a_i_add_term2_10_ a_i_add_term2_11_ a_i_add_term2_12_ a_i_add_term2_13_ a_i_add_term2_14_ a_i_add_term2_15_ a_i_add_term2_16_ a_i_add_term2_17_ a_i_add_term2_18_ a_i_add_term2_19_ a_i_add_term2_20_ a_i_add_term2_21_ a_i_add_term2_22_ a_i_add_term2_23_ a_i_add_term2_24_ a_i_add_term2_25_ a_i_add_term2_26_ a_i_add_term2_27_ a_i_add_term2_28_ a_i_add_term2_29_ a_i_add_term2_30_ a_i_add_term2_31_ a_i_add_term2_32_ a_i_add_term2_33_ a_i_add_term2_34_ a_i_add_term2_35_ a_i_add_term2_36_ a_i_add_term2_37_ a_i_add_term2_38_ a_i_add_term2_39_ a_i_add_term2_40_ a_i_add_term2_41_ a_i_add_term2_42_ a_i_add_term2_43_ a_i_add_term2_44_ a_i_add_term2_45_ a_i_add_term2_46_ a_i_add_term2_47_ a_i_add_term2_48_ a_i_add_term2_49_ a_sum_0_ a_sum_1_ a_sum_2_ a_sum_3_ a_sum_4_ a_sum_5_ a_sum_6_ a_sum_7_ a_sum_8_ a_sum_9_ a_sum_10_ a_sum_11_ a_sum_12_ a_sum_13_ a_sum_14_ a_sum_15_ a_sum_16_ a_sum_17_ a_sum_18_ a_sum_19_ a_sum_20_ a_sum_21_ a_sum_22_ a_sum_23_ a_sum_24_ a_sum_25_ a_sum_26_ a_sum_27_ a_sum_28_ a_sum_29_ a_sum_30_ a_sum_31_ a_sum_32_ a_sum_33_ a_sum_34_ a_sum_35_ a_sum_36_ a_sum_37_ a_sum_38_ a_sum_39_ a_sum_40_ a_sum_41_ a_sum_42_ a_sum_43_ a_sum_44_ a_sum_45_ a_sum_46_ a_sum_47_ a_sum_48_ a_sum_49_ a_cout
AINVX1_1 [gnd] _146_ d_lut_INVX1
AOR2X2_1 [i_add_term2_8_ i_add_term1_8_] _147_ d_lut_OR2X2
ANAND2X1_1 [i_add_term2_8_ i_add_term1_8_] _148_ d_lut_NAND2X1
ANAND3X1_1 [_146_ _148_ _147_] _149_ d_lut_NAND3X1
ANOR2X1_1 [i_add_term2_8_ i_add_term1_8_] _143_ d_lut_NOR2X1
AAND2X2_1 [i_add_term2_8_ i_add_term1_8_] _144_ d_lut_AND2X2
AOAI21X1_1 [_143_ _144_ gnd] _145_ d_lut_OAI21X1
ANAND2X1_2 [_145_ _149_] _9__0_ d_lut_NAND2X1
AOAI21X1_2 [_146_ _143_ _148_] _11__1_ d_lut_OAI21X1
AINVX1_2 [_11__3_] _153_ d_lut_INVX1
AOR2X2_2 [i_add_term2_11_ i_add_term1_11_] _154_ d_lut_OR2X2
ANAND2X1_3 [i_add_term2_11_ i_add_term1_11_] _155_ d_lut_NAND2X1
ANAND3X1_2 [_153_ _155_ _154_] _156_ d_lut_NAND3X1
ANOR2X1_2 [i_add_term2_11_ i_add_term1_11_] _150_ d_lut_NOR2X1
AAND2X2_2 [i_add_term2_11_ i_add_term1_11_] _151_ d_lut_AND2X2
AOAI21X1_3 [_150_ _151_ _11__3_] _152_ d_lut_OAI21X1
ANAND2X1_4 [_152_ _156_] _9__3_ d_lut_NAND2X1
AOAI21X1_4 [_153_ _150_ _155_] _7_ d_lut_OAI21X1
AINVX1_3 [_11__1_] _160_ d_lut_INVX1
AOR2X2_3 [i_add_term2_9_ i_add_term1_9_] _161_ d_lut_OR2X2
ANAND2X1_5 [i_add_term2_9_ i_add_term1_9_] _162_ d_lut_NAND2X1
ANAND3X1_3 [_160_ _162_ _161_] _163_ d_lut_NAND3X1
ANOR2X1_3 [i_add_term2_9_ i_add_term1_9_] _157_ d_lut_NOR2X1
AAND2X2_3 [i_add_term2_9_ i_add_term1_9_] _158_ d_lut_AND2X2
AOAI21X1_5 [_157_ _158_ _11__1_] _159_ d_lut_OAI21X1
ANAND2X1_6 [_159_ _163_] _9__1_ d_lut_NAND2X1
AOAI21X1_6 [_160_ _157_ _162_] _11__2_ d_lut_OAI21X1
AINVX1_4 [_11__2_] _167_ d_lut_INVX1
AOR2X2_4 [i_add_term2_10_ i_add_term1_10_] _168_ d_lut_OR2X2
ANAND2X1_7 [i_add_term2_10_ i_add_term1_10_] _169_ d_lut_NAND2X1
ANAND3X1_4 [_167_ _169_ _168_] _170_ d_lut_NAND3X1
ANOR2X1_4 [i_add_term2_10_ i_add_term1_10_] _164_ d_lut_NOR2X1
AAND2X2_4 [i_add_term2_10_ i_add_term1_10_] _165_ d_lut_AND2X2
AOAI21X1_7 [_164_ _165_ _11__2_] _166_ d_lut_OAI21X1
ANAND2X1_8 [_166_ _170_] _9__2_ d_lut_NAND2X1
AOAI21X1_8 [_167_ _164_ _169_] _11__3_ d_lut_OAI21X1
AINVX1_5 [vdd] _174_ d_lut_INVX1
AOR2X2_5 [i_add_term2_8_ i_add_term1_8_] _175_ d_lut_OR2X2
ANAND2X1_9 [i_add_term2_8_ i_add_term1_8_] _176_ d_lut_NAND2X1
ANAND3X1_5 [_174_ _176_ _175_] _177_ d_lut_NAND3X1
ANOR2X1_5 [i_add_term2_8_ i_add_term1_8_] _171_ d_lut_NOR2X1
AAND2X2_5 [i_add_term2_8_ i_add_term1_8_] _172_ d_lut_AND2X2
AOAI21X1_9 [_171_ _172_ vdd] _173_ d_lut_OAI21X1
ANAND2X1_10 [_173_ _177_] _10__0_ d_lut_NAND2X1
AOAI21X1_10 [_174_ _171_ _176_] _12__1_ d_lut_OAI21X1
AINVX1_6 [_12__3_] _181_ d_lut_INVX1
AOR2X2_6 [i_add_term2_11_ i_add_term1_11_] _182_ d_lut_OR2X2
ANAND2X1_11 [i_add_term2_11_ i_add_term1_11_] _183_ d_lut_NAND2X1
ANAND3X1_6 [_181_ _183_ _182_] _184_ d_lut_NAND3X1
ANOR2X1_6 [i_add_term2_11_ i_add_term1_11_] _178_ d_lut_NOR2X1
AAND2X2_6 [i_add_term2_11_ i_add_term1_11_] _179_ d_lut_AND2X2
AOAI21X1_11 [_178_ _179_ _12__3_] _180_ d_lut_OAI21X1
ANAND2X1_12 [_180_ _184_] _10__3_ d_lut_NAND2X1
AOAI21X1_12 [_181_ _178_ _183_] _8_ d_lut_OAI21X1
AINVX1_7 [_12__1_] _188_ d_lut_INVX1
AOR2X2_7 [i_add_term2_9_ i_add_term1_9_] _189_ d_lut_OR2X2
ANAND2X1_13 [i_add_term2_9_ i_add_term1_9_] _190_ d_lut_NAND2X1
ANAND3X1_7 [_188_ _190_ _189_] _191_ d_lut_NAND3X1
ANOR2X1_7 [i_add_term2_9_ i_add_term1_9_] _185_ d_lut_NOR2X1
AAND2X2_7 [i_add_term2_9_ i_add_term1_9_] _186_ d_lut_AND2X2
AOAI21X1_13 [_185_ _186_ _12__1_] _187_ d_lut_OAI21X1
ANAND2X1_14 [_187_ _191_] _10__1_ d_lut_NAND2X1
AOAI21X1_14 [_188_ _185_ _190_] _12__2_ d_lut_OAI21X1
AINVX1_8 [_12__2_] _195_ d_lut_INVX1
AOR2X2_8 [i_add_term2_10_ i_add_term1_10_] _196_ d_lut_OR2X2
ANAND2X1_15 [i_add_term2_10_ i_add_term1_10_] _197_ d_lut_NAND2X1
ANAND3X1_8 [_195_ _197_ _196_] _198_ d_lut_NAND3X1
ANOR2X1_8 [i_add_term2_10_ i_add_term1_10_] _192_ d_lut_NOR2X1
AAND2X2_8 [i_add_term2_10_ i_add_term1_10_] _193_ d_lut_AND2X2
AOAI21X1_15 [_192_ _193_ _12__2_] _194_ d_lut_OAI21X1
ANAND2X1_16 [_194_ _198_] _10__2_ d_lut_NAND2X1
AOAI21X1_16 [_195_ _192_ _197_] _12__3_ d_lut_OAI21X1
AINVX1_9 [_13_] _199_ d_lut_INVX1
ANAND2X1_17 [_14_ w_cout_2_] _200_ d_lut_NAND2X1
AOAI21X1_17 [w_cout_2_ _199_ _200_] w_cout_3_ d_lut_OAI21X1
AINVX1_10 [_15__0_] _201_ d_lut_INVX1
ANAND2X1_18 [_16__0_ w_cout_2_] _202_ d_lut_NAND2X1
AOAI21X1_18 [w_cout_2_ _201_ _202_] _0__12_ d_lut_OAI21X1
AINVX1_11 [_15__1_] _203_ d_lut_INVX1
ANAND2X1_19 [w_cout_2_ _16__1_] _204_ d_lut_NAND2X1
AOAI21X1_19 [w_cout_2_ _203_ _204_] _0__13_ d_lut_OAI21X1
AINVX1_12 [_15__2_] _205_ d_lut_INVX1
ANAND2X1_20 [w_cout_2_ _16__2_] _206_ d_lut_NAND2X1
AOAI21X1_20 [w_cout_2_ _205_ _206_] _0__14_ d_lut_OAI21X1
AINVX1_13 [_15__3_] _207_ d_lut_INVX1
ANAND2X1_21 [w_cout_2_ _16__3_] _208_ d_lut_NAND2X1
AOAI21X1_21 [w_cout_2_ _207_ _208_] _0__15_ d_lut_OAI21X1
AINVX1_14 [gnd] _212_ d_lut_INVX1
AOR2X2_9 [i_add_term2_12_ i_add_term1_12_] _213_ d_lut_OR2X2
ANAND2X1_22 [i_add_term2_12_ i_add_term1_12_] _214_ d_lut_NAND2X1
ANAND3X1_9 [_212_ _214_ _213_] _215_ d_lut_NAND3X1
ANOR2X1_9 [i_add_term2_12_ i_add_term1_12_] _209_ d_lut_NOR2X1
AAND2X2_9 [i_add_term2_12_ i_add_term1_12_] _210_ d_lut_AND2X2
AOAI21X1_22 [_209_ _210_ gnd] _211_ d_lut_OAI21X1
ANAND2X1_23 [_211_ _215_] _15__0_ d_lut_NAND2X1
AOAI21X1_23 [_212_ _209_ _214_] _17__1_ d_lut_OAI21X1
AINVX1_15 [_17__3_] _219_ d_lut_INVX1
AOR2X2_10 [i_add_term2_15_ i_add_term1_15_] _220_ d_lut_OR2X2
ANAND2X1_24 [i_add_term2_15_ i_add_term1_15_] _221_ d_lut_NAND2X1
ANAND3X1_10 [_219_ _221_ _220_] _222_ d_lut_NAND3X1
ANOR2X1_10 [i_add_term2_15_ i_add_term1_15_] _216_ d_lut_NOR2X1
AAND2X2_10 [i_add_term2_15_ i_add_term1_15_] _217_ d_lut_AND2X2
AOAI21X1_24 [_216_ _217_ _17__3_] _218_ d_lut_OAI21X1
ANAND2X1_25 [_218_ _222_] _15__3_ d_lut_NAND2X1
AOAI21X1_25 [_219_ _216_ _221_] _13_ d_lut_OAI21X1
AINVX1_16 [_17__1_] _226_ d_lut_INVX1
AOR2X2_11 [i_add_term2_13_ i_add_term1_13_] _227_ d_lut_OR2X2
ANAND2X1_26 [i_add_term2_13_ i_add_term1_13_] _228_ d_lut_NAND2X1
ANAND3X1_11 [_226_ _228_ _227_] _229_ d_lut_NAND3X1
ANOR2X1_11 [i_add_term2_13_ i_add_term1_13_] _223_ d_lut_NOR2X1
AAND2X2_11 [i_add_term2_13_ i_add_term1_13_] _224_ d_lut_AND2X2
AOAI21X1_26 [_223_ _224_ _17__1_] _225_ d_lut_OAI21X1
ANAND2X1_27 [_225_ _229_] _15__1_ d_lut_NAND2X1
AOAI21X1_27 [_226_ _223_ _228_] _17__2_ d_lut_OAI21X1
AINVX1_17 [_17__2_] _233_ d_lut_INVX1
AOR2X2_12 [i_add_term2_14_ i_add_term1_14_] _234_ d_lut_OR2X2
ANAND2X1_28 [i_add_term2_14_ i_add_term1_14_] _235_ d_lut_NAND2X1
ANAND3X1_12 [_233_ _235_ _234_] _236_ d_lut_NAND3X1
ANOR2X1_12 [i_add_term2_14_ i_add_term1_14_] _230_ d_lut_NOR2X1
AAND2X2_12 [i_add_term2_14_ i_add_term1_14_] _231_ d_lut_AND2X2
AOAI21X1_28 [_230_ _231_ _17__2_] _232_ d_lut_OAI21X1
ANAND2X1_29 [_232_ _236_] _15__2_ d_lut_NAND2X1
AOAI21X1_29 [_233_ _230_ _235_] _17__3_ d_lut_OAI21X1
AINVX1_18 [vdd] _240_ d_lut_INVX1
AOR2X2_13 [i_add_term2_12_ i_add_term1_12_] _241_ d_lut_OR2X2
ANAND2X1_30 [i_add_term2_12_ i_add_term1_12_] _242_ d_lut_NAND2X1
ANAND3X1_13 [_240_ _242_ _241_] _243_ d_lut_NAND3X1
ANOR2X1_13 [i_add_term2_12_ i_add_term1_12_] _237_ d_lut_NOR2X1
AAND2X2_13 [i_add_term2_12_ i_add_term1_12_] _238_ d_lut_AND2X2
AOAI21X1_30 [_237_ _238_ vdd] _239_ d_lut_OAI21X1
ANAND2X1_31 [_239_ _243_] _16__0_ d_lut_NAND2X1
AOAI21X1_31 [_240_ _237_ _242_] _18__1_ d_lut_OAI21X1
AINVX1_19 [_18__3_] _247_ d_lut_INVX1
AOR2X2_14 [i_add_term2_15_ i_add_term1_15_] _248_ d_lut_OR2X2
ANAND2X1_32 [i_add_term2_15_ i_add_term1_15_] _249_ d_lut_NAND2X1
ANAND3X1_14 [_247_ _249_ _248_] _250_ d_lut_NAND3X1
ANOR2X1_14 [i_add_term2_15_ i_add_term1_15_] _244_ d_lut_NOR2X1
AAND2X2_14 [i_add_term2_15_ i_add_term1_15_] _245_ d_lut_AND2X2
AOAI21X1_32 [_244_ _245_ _18__3_] _246_ d_lut_OAI21X1
ANAND2X1_33 [_246_ _250_] _16__3_ d_lut_NAND2X1
AOAI21X1_33 [_247_ _244_ _249_] _14_ d_lut_OAI21X1
AINVX1_20 [_18__1_] _254_ d_lut_INVX1
AOR2X2_15 [i_add_term2_13_ i_add_term1_13_] _255_ d_lut_OR2X2
ANAND2X1_34 [i_add_term2_13_ i_add_term1_13_] _256_ d_lut_NAND2X1
ANAND3X1_15 [_254_ _256_ _255_] _257_ d_lut_NAND3X1
ANOR2X1_15 [i_add_term2_13_ i_add_term1_13_] _251_ d_lut_NOR2X1
AAND2X2_15 [i_add_term2_13_ i_add_term1_13_] _252_ d_lut_AND2X2
AOAI21X1_34 [_251_ _252_ _18__1_] _253_ d_lut_OAI21X1
ANAND2X1_35 [_253_ _257_] _16__1_ d_lut_NAND2X1
AOAI21X1_35 [_254_ _251_ _256_] _18__2_ d_lut_OAI21X1
AINVX1_21 [_18__2_] _261_ d_lut_INVX1
AOR2X2_16 [i_add_term2_14_ i_add_term1_14_] _262_ d_lut_OR2X2
ANAND2X1_36 [i_add_term2_14_ i_add_term1_14_] _263_ d_lut_NAND2X1
ANAND3X1_16 [_261_ _263_ _262_] _264_ d_lut_NAND3X1
ANOR2X1_16 [i_add_term2_14_ i_add_term1_14_] _258_ d_lut_NOR2X1
AAND2X2_16 [i_add_term2_14_ i_add_term1_14_] _259_ d_lut_AND2X2
AOAI21X1_36 [_258_ _259_ _18__2_] _260_ d_lut_OAI21X1
ANAND2X1_37 [_260_ _264_] _16__2_ d_lut_NAND2X1
AOAI21X1_37 [_261_ _258_ _263_] _18__3_ d_lut_OAI21X1
AINVX1_22 [_19_] _265_ d_lut_INVX1
ANAND2X1_38 [_20_ w_cout_3_] _266_ d_lut_NAND2X1
AOAI21X1_38 [w_cout_3_ _265_ _266_] w_cout_4_ d_lut_OAI21X1
AINVX1_23 [_21__0_] _267_ d_lut_INVX1
ANAND2X1_39 [_22__0_ w_cout_3_] _268_ d_lut_NAND2X1
AOAI21X1_39 [w_cout_3_ _267_ _268_] _0__16_ d_lut_OAI21X1
AINVX1_24 [_21__1_] _269_ d_lut_INVX1
ANAND2X1_40 [w_cout_3_ _22__1_] _270_ d_lut_NAND2X1
AOAI21X1_40 [w_cout_3_ _269_ _270_] _0__17_ d_lut_OAI21X1
AINVX1_25 [_21__2_] _271_ d_lut_INVX1
ANAND2X1_41 [w_cout_3_ _22__2_] _272_ d_lut_NAND2X1
AOAI21X1_41 [w_cout_3_ _271_ _272_] _0__18_ d_lut_OAI21X1
AINVX1_26 [_21__3_] _273_ d_lut_INVX1
ANAND2X1_42 [w_cout_3_ _22__3_] _274_ d_lut_NAND2X1
AOAI21X1_42 [w_cout_3_ _273_ _274_] _0__19_ d_lut_OAI21X1
AINVX1_27 [gnd] _278_ d_lut_INVX1
AOR2X2_17 [i_add_term2_16_ i_add_term1_16_] _279_ d_lut_OR2X2
ANAND2X1_43 [i_add_term2_16_ i_add_term1_16_] _280_ d_lut_NAND2X1
ANAND3X1_17 [_278_ _280_ _279_] _281_ d_lut_NAND3X1
ANOR2X1_17 [i_add_term2_16_ i_add_term1_16_] _275_ d_lut_NOR2X1
AAND2X2_17 [i_add_term2_16_ i_add_term1_16_] _276_ d_lut_AND2X2
AOAI21X1_43 [_275_ _276_ gnd] _277_ d_lut_OAI21X1
ANAND2X1_44 [_277_ _281_] _21__0_ d_lut_NAND2X1
AOAI21X1_44 [_278_ _275_ _280_] _23__1_ d_lut_OAI21X1
AINVX1_28 [_23__3_] _285_ d_lut_INVX1
AOR2X2_18 [i_add_term2_19_ i_add_term1_19_] _286_ d_lut_OR2X2
ANAND2X1_45 [i_add_term2_19_ i_add_term1_19_] _287_ d_lut_NAND2X1
ANAND3X1_18 [_285_ _287_ _286_] _288_ d_lut_NAND3X1
ANOR2X1_18 [i_add_term2_19_ i_add_term1_19_] _282_ d_lut_NOR2X1
AAND2X2_18 [i_add_term2_19_ i_add_term1_19_] _283_ d_lut_AND2X2
AOAI21X1_45 [_282_ _283_ _23__3_] _284_ d_lut_OAI21X1
ANAND2X1_46 [_284_ _288_] _21__3_ d_lut_NAND2X1
AOAI21X1_46 [_285_ _282_ _287_] _19_ d_lut_OAI21X1
AINVX1_29 [_23__1_] _292_ d_lut_INVX1
AOR2X2_19 [i_add_term2_17_ i_add_term1_17_] _293_ d_lut_OR2X2
ANAND2X1_47 [i_add_term2_17_ i_add_term1_17_] _294_ d_lut_NAND2X1
ANAND3X1_19 [_292_ _294_ _293_] _295_ d_lut_NAND3X1
ANOR2X1_19 [i_add_term2_17_ i_add_term1_17_] _289_ d_lut_NOR2X1
AAND2X2_19 [i_add_term2_17_ i_add_term1_17_] _290_ d_lut_AND2X2
AOAI21X1_47 [_289_ _290_ _23__1_] _291_ d_lut_OAI21X1
ANAND2X1_48 [_291_ _295_] _21__1_ d_lut_NAND2X1
AOAI21X1_48 [_292_ _289_ _294_] _23__2_ d_lut_OAI21X1
AINVX1_30 [_23__2_] _299_ d_lut_INVX1
AOR2X2_20 [i_add_term2_18_ i_add_term1_18_] _300_ d_lut_OR2X2
ANAND2X1_49 [i_add_term2_18_ i_add_term1_18_] _301_ d_lut_NAND2X1
ANAND3X1_20 [_299_ _301_ _300_] _302_ d_lut_NAND3X1
ANOR2X1_20 [i_add_term2_18_ i_add_term1_18_] _296_ d_lut_NOR2X1
AAND2X2_20 [i_add_term2_18_ i_add_term1_18_] _297_ d_lut_AND2X2
AOAI21X1_49 [_296_ _297_ _23__2_] _298_ d_lut_OAI21X1
ANAND2X1_50 [_298_ _302_] _21__2_ d_lut_NAND2X1
AOAI21X1_50 [_299_ _296_ _301_] _23__3_ d_lut_OAI21X1
AINVX1_31 [vdd] _306_ d_lut_INVX1
AOR2X2_21 [i_add_term2_16_ i_add_term1_16_] _307_ d_lut_OR2X2
ANAND2X1_51 [i_add_term2_16_ i_add_term1_16_] _308_ d_lut_NAND2X1
ANAND3X1_21 [_306_ _308_ _307_] _309_ d_lut_NAND3X1
ANOR2X1_21 [i_add_term2_16_ i_add_term1_16_] _303_ d_lut_NOR2X1
AAND2X2_21 [i_add_term2_16_ i_add_term1_16_] _304_ d_lut_AND2X2
AOAI21X1_51 [_303_ _304_ vdd] _305_ d_lut_OAI21X1
ANAND2X1_52 [_305_ _309_] _22__0_ d_lut_NAND2X1
AOAI21X1_52 [_306_ _303_ _308_] _24__1_ d_lut_OAI21X1
AINVX1_32 [_24__3_] _313_ d_lut_INVX1
AOR2X2_22 [i_add_term2_19_ i_add_term1_19_] _314_ d_lut_OR2X2
ANAND2X1_53 [i_add_term2_19_ i_add_term1_19_] _315_ d_lut_NAND2X1
ANAND3X1_22 [_313_ _315_ _314_] _316_ d_lut_NAND3X1
ANOR2X1_22 [i_add_term2_19_ i_add_term1_19_] _310_ d_lut_NOR2X1
AAND2X2_22 [i_add_term2_19_ i_add_term1_19_] _311_ d_lut_AND2X2
AOAI21X1_53 [_310_ _311_ _24__3_] _312_ d_lut_OAI21X1
ANAND2X1_54 [_312_ _316_] _22__3_ d_lut_NAND2X1
AOAI21X1_54 [_313_ _310_ _315_] _20_ d_lut_OAI21X1
AINVX1_33 [_24__1_] _320_ d_lut_INVX1
AOR2X2_23 [i_add_term2_17_ i_add_term1_17_] _321_ d_lut_OR2X2
ANAND2X1_55 [i_add_term2_17_ i_add_term1_17_] _322_ d_lut_NAND2X1
ANAND3X1_23 [_320_ _322_ _321_] _323_ d_lut_NAND3X1
ANOR2X1_23 [i_add_term2_17_ i_add_term1_17_] _317_ d_lut_NOR2X1
AAND2X2_23 [i_add_term2_17_ i_add_term1_17_] _318_ d_lut_AND2X2
AOAI21X1_55 [_317_ _318_ _24__1_] _319_ d_lut_OAI21X1
ANAND2X1_56 [_319_ _323_] _22__1_ d_lut_NAND2X1
AOAI21X1_56 [_320_ _317_ _322_] _24__2_ d_lut_OAI21X1
AINVX1_34 [_24__2_] _327_ d_lut_INVX1
AOR2X2_24 [i_add_term2_18_ i_add_term1_18_] _328_ d_lut_OR2X2
ANAND2X1_57 [i_add_term2_18_ i_add_term1_18_] _329_ d_lut_NAND2X1
ANAND3X1_24 [_327_ _329_ _328_] _330_ d_lut_NAND3X1
ANOR2X1_24 [i_add_term2_18_ i_add_term1_18_] _324_ d_lut_NOR2X1
AAND2X2_24 [i_add_term2_18_ i_add_term1_18_] _325_ d_lut_AND2X2
AOAI21X1_57 [_324_ _325_ _24__2_] _326_ d_lut_OAI21X1
ANAND2X1_58 [_326_ _330_] _22__2_ d_lut_NAND2X1
AOAI21X1_58 [_327_ _324_ _329_] _24__3_ d_lut_OAI21X1
AINVX1_35 [_25_] _331_ d_lut_INVX1
ANAND2X1_59 [_26_ w_cout_4_] _332_ d_lut_NAND2X1
AOAI21X1_59 [w_cout_4_ _331_ _332_] w_cout_5_ d_lut_OAI21X1
AINVX1_36 [_27__0_] _333_ d_lut_INVX1
ANAND2X1_60 [_28__0_ w_cout_4_] _334_ d_lut_NAND2X1
AOAI21X1_60 [w_cout_4_ _333_ _334_] _0__20_ d_lut_OAI21X1
AINVX1_37 [_27__1_] _335_ d_lut_INVX1
ANAND2X1_61 [w_cout_4_ _28__1_] _336_ d_lut_NAND2X1
AOAI21X1_61 [w_cout_4_ _335_ _336_] _0__21_ d_lut_OAI21X1
AINVX1_38 [_27__2_] _337_ d_lut_INVX1
ANAND2X1_62 [w_cout_4_ _28__2_] _338_ d_lut_NAND2X1
AOAI21X1_62 [w_cout_4_ _337_ _338_] _0__22_ d_lut_OAI21X1
AINVX1_39 [_27__3_] _339_ d_lut_INVX1
ANAND2X1_63 [w_cout_4_ _28__3_] _340_ d_lut_NAND2X1
AOAI21X1_63 [w_cout_4_ _339_ _340_] _0__23_ d_lut_OAI21X1
AINVX1_40 [gnd] _344_ d_lut_INVX1
AOR2X2_25 [i_add_term2_20_ i_add_term1_20_] _345_ d_lut_OR2X2
ANAND2X1_64 [i_add_term2_20_ i_add_term1_20_] _346_ d_lut_NAND2X1
ANAND3X1_25 [_344_ _346_ _345_] _347_ d_lut_NAND3X1
ANOR2X1_25 [i_add_term2_20_ i_add_term1_20_] _341_ d_lut_NOR2X1
AAND2X2_25 [i_add_term2_20_ i_add_term1_20_] _342_ d_lut_AND2X2
AOAI21X1_64 [_341_ _342_ gnd] _343_ d_lut_OAI21X1
ANAND2X1_65 [_343_ _347_] _27__0_ d_lut_NAND2X1
AOAI21X1_65 [_344_ _341_ _346_] _29__1_ d_lut_OAI21X1
AINVX1_41 [_29__3_] _351_ d_lut_INVX1
AOR2X2_26 [i_add_term2_23_ i_add_term1_23_] _352_ d_lut_OR2X2
ANAND2X1_66 [i_add_term2_23_ i_add_term1_23_] _353_ d_lut_NAND2X1
ANAND3X1_26 [_351_ _353_ _352_] _354_ d_lut_NAND3X1
ANOR2X1_26 [i_add_term2_23_ i_add_term1_23_] _348_ d_lut_NOR2X1
AAND2X2_26 [i_add_term2_23_ i_add_term1_23_] _349_ d_lut_AND2X2
AOAI21X1_66 [_348_ _349_ _29__3_] _350_ d_lut_OAI21X1
ANAND2X1_67 [_350_ _354_] _27__3_ d_lut_NAND2X1
AOAI21X1_67 [_351_ _348_ _353_] _25_ d_lut_OAI21X1
AINVX1_42 [_29__1_] _358_ d_lut_INVX1
AOR2X2_27 [i_add_term2_21_ i_add_term1_21_] _359_ d_lut_OR2X2
ANAND2X1_68 [i_add_term2_21_ i_add_term1_21_] _360_ d_lut_NAND2X1
ANAND3X1_27 [_358_ _360_ _359_] _361_ d_lut_NAND3X1
ANOR2X1_27 [i_add_term2_21_ i_add_term1_21_] _355_ d_lut_NOR2X1
AAND2X2_27 [i_add_term2_21_ i_add_term1_21_] _356_ d_lut_AND2X2
AOAI21X1_68 [_355_ _356_ _29__1_] _357_ d_lut_OAI21X1
ANAND2X1_69 [_357_ _361_] _27__1_ d_lut_NAND2X1
AOAI21X1_69 [_358_ _355_ _360_] _29__2_ d_lut_OAI21X1
AINVX1_43 [_29__2_] _365_ d_lut_INVX1
AOR2X2_28 [i_add_term2_22_ i_add_term1_22_] _366_ d_lut_OR2X2
ANAND2X1_70 [i_add_term2_22_ i_add_term1_22_] _367_ d_lut_NAND2X1
ANAND3X1_28 [_365_ _367_ _366_] _368_ d_lut_NAND3X1
ANOR2X1_28 [i_add_term2_22_ i_add_term1_22_] _362_ d_lut_NOR2X1
AAND2X2_28 [i_add_term2_22_ i_add_term1_22_] _363_ d_lut_AND2X2
AOAI21X1_70 [_362_ _363_ _29__2_] _364_ d_lut_OAI21X1
ANAND2X1_71 [_364_ _368_] _27__2_ d_lut_NAND2X1
AOAI21X1_71 [_365_ _362_ _367_] _29__3_ d_lut_OAI21X1
AINVX1_44 [vdd] _372_ d_lut_INVX1
AOR2X2_29 [i_add_term2_20_ i_add_term1_20_] _373_ d_lut_OR2X2
ANAND2X1_72 [i_add_term2_20_ i_add_term1_20_] _374_ d_lut_NAND2X1
ANAND3X1_29 [_372_ _374_ _373_] _375_ d_lut_NAND3X1
ANOR2X1_29 [i_add_term2_20_ i_add_term1_20_] _369_ d_lut_NOR2X1
AAND2X2_29 [i_add_term2_20_ i_add_term1_20_] _370_ d_lut_AND2X2
AOAI21X1_72 [_369_ _370_ vdd] _371_ d_lut_OAI21X1
ANAND2X1_73 [_371_ _375_] _28__0_ d_lut_NAND2X1
AOAI21X1_73 [_372_ _369_ _374_] _30__1_ d_lut_OAI21X1
AINVX1_45 [_30__3_] _379_ d_lut_INVX1
AOR2X2_30 [i_add_term2_23_ i_add_term1_23_] _380_ d_lut_OR2X2
ANAND2X1_74 [i_add_term2_23_ i_add_term1_23_] _381_ d_lut_NAND2X1
ANAND3X1_30 [_379_ _381_ _380_] _382_ d_lut_NAND3X1
ANOR2X1_30 [i_add_term2_23_ i_add_term1_23_] _376_ d_lut_NOR2X1
AAND2X2_30 [i_add_term2_23_ i_add_term1_23_] _377_ d_lut_AND2X2
AOAI21X1_74 [_376_ _377_ _30__3_] _378_ d_lut_OAI21X1
ANAND2X1_75 [_378_ _382_] _28__3_ d_lut_NAND2X1
AOAI21X1_75 [_379_ _376_ _381_] _26_ d_lut_OAI21X1
AINVX1_46 [_30__1_] _386_ d_lut_INVX1
AOR2X2_31 [i_add_term2_21_ i_add_term1_21_] _387_ d_lut_OR2X2
ANAND2X1_76 [i_add_term2_21_ i_add_term1_21_] _388_ d_lut_NAND2X1
ANAND3X1_31 [_386_ _388_ _387_] _389_ d_lut_NAND3X1
ANOR2X1_31 [i_add_term2_21_ i_add_term1_21_] _383_ d_lut_NOR2X1
AAND2X2_31 [i_add_term2_21_ i_add_term1_21_] _384_ d_lut_AND2X2
AOAI21X1_76 [_383_ _384_ _30__1_] _385_ d_lut_OAI21X1
ANAND2X1_77 [_385_ _389_] _28__1_ d_lut_NAND2X1
AOAI21X1_77 [_386_ _383_ _388_] _30__2_ d_lut_OAI21X1
AINVX1_47 [_30__2_] _393_ d_lut_INVX1
AOR2X2_32 [i_add_term2_22_ i_add_term1_22_] _394_ d_lut_OR2X2
ANAND2X1_78 [i_add_term2_22_ i_add_term1_22_] _395_ d_lut_NAND2X1
ANAND3X1_32 [_393_ _395_ _394_] _396_ d_lut_NAND3X1
ANOR2X1_32 [i_add_term2_22_ i_add_term1_22_] _390_ d_lut_NOR2X1
AAND2X2_32 [i_add_term2_22_ i_add_term1_22_] _391_ d_lut_AND2X2
AOAI21X1_78 [_390_ _391_ _30__2_] _392_ d_lut_OAI21X1
ANAND2X1_79 [_392_ _396_] _28__2_ d_lut_NAND2X1
AOAI21X1_79 [_393_ _390_ _395_] _30__3_ d_lut_OAI21X1
AINVX1_48 [_31_] _397_ d_lut_INVX1
ANAND2X1_80 [_32_ w_cout_5_] _398_ d_lut_NAND2X1
AOAI21X1_80 [w_cout_5_ _397_ _398_] w_cout_6_ d_lut_OAI21X1
AINVX1_49 [_33__0_] _399_ d_lut_INVX1
ANAND2X1_81 [_34__0_ w_cout_5_] _400_ d_lut_NAND2X1
AOAI21X1_81 [w_cout_5_ _399_ _400_] _0__24_ d_lut_OAI21X1
AINVX1_50 [_33__1_] _401_ d_lut_INVX1
ANAND2X1_82 [w_cout_5_ _34__1_] _402_ d_lut_NAND2X1
AOAI21X1_82 [w_cout_5_ _401_ _402_] _0__25_ d_lut_OAI21X1
AINVX1_51 [_33__2_] _403_ d_lut_INVX1
ANAND2X1_83 [w_cout_5_ _34__2_] _404_ d_lut_NAND2X1
AOAI21X1_83 [w_cout_5_ _403_ _404_] _0__26_ d_lut_OAI21X1
AINVX1_52 [_33__3_] _405_ d_lut_INVX1
ANAND2X1_84 [w_cout_5_ _34__3_] _406_ d_lut_NAND2X1
AOAI21X1_84 [w_cout_5_ _405_ _406_] _0__27_ d_lut_OAI21X1
AINVX1_53 [gnd] _410_ d_lut_INVX1
AOR2X2_33 [i_add_term2_24_ i_add_term1_24_] _411_ d_lut_OR2X2
ANAND2X1_85 [i_add_term2_24_ i_add_term1_24_] _412_ d_lut_NAND2X1
ANAND3X1_33 [_410_ _412_ _411_] _413_ d_lut_NAND3X1
ANOR2X1_33 [i_add_term2_24_ i_add_term1_24_] _407_ d_lut_NOR2X1
AAND2X2_33 [i_add_term2_24_ i_add_term1_24_] _408_ d_lut_AND2X2
AOAI21X1_85 [_407_ _408_ gnd] _409_ d_lut_OAI21X1
ANAND2X1_86 [_409_ _413_] _33__0_ d_lut_NAND2X1
AOAI21X1_86 [_410_ _407_ _412_] _35__1_ d_lut_OAI21X1
AINVX1_54 [_35__3_] _417_ d_lut_INVX1
AOR2X2_34 [i_add_term2_27_ i_add_term1_27_] _418_ d_lut_OR2X2
ANAND2X1_87 [i_add_term2_27_ i_add_term1_27_] _419_ d_lut_NAND2X1
ANAND3X1_34 [_417_ _419_ _418_] _420_ d_lut_NAND3X1
ANOR2X1_34 [i_add_term2_27_ i_add_term1_27_] _414_ d_lut_NOR2X1
AAND2X2_34 [i_add_term2_27_ i_add_term1_27_] _415_ d_lut_AND2X2
AOAI21X1_87 [_414_ _415_ _35__3_] _416_ d_lut_OAI21X1
ANAND2X1_88 [_416_ _420_] _33__3_ d_lut_NAND2X1
AOAI21X1_88 [_417_ _414_ _419_] _31_ d_lut_OAI21X1
AINVX1_55 [_35__1_] _424_ d_lut_INVX1
AOR2X2_35 [i_add_term2_25_ i_add_term1_25_] _425_ d_lut_OR2X2
ANAND2X1_89 [i_add_term2_25_ i_add_term1_25_] _426_ d_lut_NAND2X1
ANAND3X1_35 [_424_ _426_ _425_] _427_ d_lut_NAND3X1
ANOR2X1_35 [i_add_term2_25_ i_add_term1_25_] _421_ d_lut_NOR2X1
AAND2X2_35 [i_add_term2_25_ i_add_term1_25_] _422_ d_lut_AND2X2
AOAI21X1_89 [_421_ _422_ _35__1_] _423_ d_lut_OAI21X1
ANAND2X1_90 [_423_ _427_] _33__1_ d_lut_NAND2X1
AOAI21X1_90 [_424_ _421_ _426_] _35__2_ d_lut_OAI21X1
AINVX1_56 [_35__2_] _431_ d_lut_INVX1
AOR2X2_36 [i_add_term2_26_ i_add_term1_26_] _432_ d_lut_OR2X2
ANAND2X1_91 [i_add_term2_26_ i_add_term1_26_] _433_ d_lut_NAND2X1
ANAND3X1_36 [_431_ _433_ _432_] _434_ d_lut_NAND3X1
ANOR2X1_36 [i_add_term2_26_ i_add_term1_26_] _428_ d_lut_NOR2X1
AAND2X2_36 [i_add_term2_26_ i_add_term1_26_] _429_ d_lut_AND2X2
AOAI21X1_91 [_428_ _429_ _35__2_] _430_ d_lut_OAI21X1
ANAND2X1_92 [_430_ _434_] _33__2_ d_lut_NAND2X1
AOAI21X1_92 [_431_ _428_ _433_] _35__3_ d_lut_OAI21X1
AINVX1_57 [vdd] _438_ d_lut_INVX1
AOR2X2_37 [i_add_term2_24_ i_add_term1_24_] _439_ d_lut_OR2X2
ANAND2X1_93 [i_add_term2_24_ i_add_term1_24_] _440_ d_lut_NAND2X1
ANAND3X1_37 [_438_ _440_ _439_] _441_ d_lut_NAND3X1
ANOR2X1_37 [i_add_term2_24_ i_add_term1_24_] _435_ d_lut_NOR2X1
AAND2X2_37 [i_add_term2_24_ i_add_term1_24_] _436_ d_lut_AND2X2
AOAI21X1_93 [_435_ _436_ vdd] _437_ d_lut_OAI21X1
ANAND2X1_94 [_437_ _441_] _34__0_ d_lut_NAND2X1
AOAI21X1_94 [_438_ _435_ _440_] _36__1_ d_lut_OAI21X1
AINVX1_58 [_36__3_] _445_ d_lut_INVX1
AOR2X2_38 [i_add_term2_27_ i_add_term1_27_] _446_ d_lut_OR2X2
ANAND2X1_95 [i_add_term2_27_ i_add_term1_27_] _447_ d_lut_NAND2X1
ANAND3X1_38 [_445_ _447_ _446_] _448_ d_lut_NAND3X1
ANOR2X1_38 [i_add_term2_27_ i_add_term1_27_] _442_ d_lut_NOR2X1
AAND2X2_38 [i_add_term2_27_ i_add_term1_27_] _443_ d_lut_AND2X2
AOAI21X1_95 [_442_ _443_ _36__3_] _444_ d_lut_OAI21X1
ANAND2X1_96 [_444_ _448_] _34__3_ d_lut_NAND2X1
AOAI21X1_96 [_445_ _442_ _447_] _32_ d_lut_OAI21X1
AINVX1_59 [_36__1_] _452_ d_lut_INVX1
AOR2X2_39 [i_add_term2_25_ i_add_term1_25_] _453_ d_lut_OR2X2
ANAND2X1_97 [i_add_term2_25_ i_add_term1_25_] _454_ d_lut_NAND2X1
ANAND3X1_39 [_452_ _454_ _453_] _455_ d_lut_NAND3X1
ANOR2X1_39 [i_add_term2_25_ i_add_term1_25_] _449_ d_lut_NOR2X1
AAND2X2_39 [i_add_term2_25_ i_add_term1_25_] _450_ d_lut_AND2X2
AOAI21X1_97 [_449_ _450_ _36__1_] _451_ d_lut_OAI21X1
ANAND2X1_98 [_451_ _455_] _34__1_ d_lut_NAND2X1
AOAI21X1_98 [_452_ _449_ _454_] _36__2_ d_lut_OAI21X1
AINVX1_60 [_36__2_] _459_ d_lut_INVX1
AOR2X2_40 [i_add_term2_26_ i_add_term1_26_] _460_ d_lut_OR2X2
ANAND2X1_99 [i_add_term2_26_ i_add_term1_26_] _461_ d_lut_NAND2X1
ANAND3X1_40 [_459_ _461_ _460_] _462_ d_lut_NAND3X1
ANOR2X1_40 [i_add_term2_26_ i_add_term1_26_] _456_ d_lut_NOR2X1
AAND2X2_40 [i_add_term2_26_ i_add_term1_26_] _457_ d_lut_AND2X2
AOAI21X1_99 [_456_ _457_ _36__2_] _458_ d_lut_OAI21X1
ANAND2X1_100 [_458_ _462_] _34__2_ d_lut_NAND2X1
AOAI21X1_100 [_459_ _456_ _461_] _36__3_ d_lut_OAI21X1
AINVX1_61 [_37_] _463_ d_lut_INVX1
ANAND2X1_101 [_38_ w_cout_6_] _464_ d_lut_NAND2X1
AOAI21X1_101 [w_cout_6_ _463_ _464_] w_cout_7_ d_lut_OAI21X1
AINVX1_62 [_39__0_] _465_ d_lut_INVX1
ANAND2X1_102 [_40__0_ w_cout_6_] _466_ d_lut_NAND2X1
AOAI21X1_102 [w_cout_6_ _465_ _466_] _0__28_ d_lut_OAI21X1
AINVX1_63 [_39__1_] _467_ d_lut_INVX1
ANAND2X1_103 [w_cout_6_ _40__1_] _468_ d_lut_NAND2X1
AOAI21X1_103 [w_cout_6_ _467_ _468_] _0__29_ d_lut_OAI21X1
AINVX1_64 [_39__2_] _469_ d_lut_INVX1
ANAND2X1_104 [w_cout_6_ _40__2_] _470_ d_lut_NAND2X1
AOAI21X1_104 [w_cout_6_ _469_ _470_] _0__30_ d_lut_OAI21X1
AINVX1_65 [_39__3_] _471_ d_lut_INVX1
ANAND2X1_105 [w_cout_6_ _40__3_] _472_ d_lut_NAND2X1
AOAI21X1_105 [w_cout_6_ _471_ _472_] _0__31_ d_lut_OAI21X1
AINVX1_66 [gnd] _476_ d_lut_INVX1
AOR2X2_41 [i_add_term2_28_ i_add_term1_28_] _477_ d_lut_OR2X2
ANAND2X1_106 [i_add_term2_28_ i_add_term1_28_] _478_ d_lut_NAND2X1
ANAND3X1_41 [_476_ _478_ _477_] _479_ d_lut_NAND3X1
ANOR2X1_41 [i_add_term2_28_ i_add_term1_28_] _473_ d_lut_NOR2X1
AAND2X2_41 [i_add_term2_28_ i_add_term1_28_] _474_ d_lut_AND2X2
AOAI21X1_106 [_473_ _474_ gnd] _475_ d_lut_OAI21X1
ANAND2X1_107 [_475_ _479_] _39__0_ d_lut_NAND2X1
AOAI21X1_107 [_476_ _473_ _478_] _41__1_ d_lut_OAI21X1
AINVX1_67 [_41__3_] _483_ d_lut_INVX1
AOR2X2_42 [i_add_term2_31_ i_add_term1_31_] _484_ d_lut_OR2X2
ANAND2X1_108 [i_add_term2_31_ i_add_term1_31_] _485_ d_lut_NAND2X1
ANAND3X1_42 [_483_ _485_ _484_] _486_ d_lut_NAND3X1
ANOR2X1_42 [i_add_term2_31_ i_add_term1_31_] _480_ d_lut_NOR2X1
AAND2X2_42 [i_add_term2_31_ i_add_term1_31_] _481_ d_lut_AND2X2
AOAI21X1_108 [_480_ _481_ _41__3_] _482_ d_lut_OAI21X1
ANAND2X1_109 [_482_ _486_] _39__3_ d_lut_NAND2X1
AOAI21X1_109 [_483_ _480_ _485_] _37_ d_lut_OAI21X1
AINVX1_68 [_41__1_] _490_ d_lut_INVX1
AOR2X2_43 [i_add_term2_29_ i_add_term1_29_] _491_ d_lut_OR2X2
ANAND2X1_110 [i_add_term2_29_ i_add_term1_29_] _492_ d_lut_NAND2X1
ANAND3X1_43 [_490_ _492_ _491_] _493_ d_lut_NAND3X1
ANOR2X1_43 [i_add_term2_29_ i_add_term1_29_] _487_ d_lut_NOR2X1
AAND2X2_43 [i_add_term2_29_ i_add_term1_29_] _488_ d_lut_AND2X2
AOAI21X1_110 [_487_ _488_ _41__1_] _489_ d_lut_OAI21X1
ANAND2X1_111 [_489_ _493_] _39__1_ d_lut_NAND2X1
AOAI21X1_111 [_490_ _487_ _492_] _41__2_ d_lut_OAI21X1
AINVX1_69 [_41__2_] _497_ d_lut_INVX1
AOR2X2_44 [i_add_term2_30_ i_add_term1_30_] _498_ d_lut_OR2X2
ANAND2X1_112 [i_add_term2_30_ i_add_term1_30_] _499_ d_lut_NAND2X1
ANAND3X1_44 [_497_ _499_ _498_] _500_ d_lut_NAND3X1
ANOR2X1_44 [i_add_term2_30_ i_add_term1_30_] _494_ d_lut_NOR2X1
AAND2X2_44 [i_add_term2_30_ i_add_term1_30_] _495_ d_lut_AND2X2
AOAI21X1_112 [_494_ _495_ _41__2_] _496_ d_lut_OAI21X1
ANAND2X1_113 [_496_ _500_] _39__2_ d_lut_NAND2X1
AOAI21X1_113 [_497_ _494_ _499_] _41__3_ d_lut_OAI21X1
AINVX1_70 [vdd] _504_ d_lut_INVX1
AOR2X2_45 [i_add_term2_28_ i_add_term1_28_] _505_ d_lut_OR2X2
ANAND2X1_114 [i_add_term2_28_ i_add_term1_28_] _506_ d_lut_NAND2X1
ANAND3X1_45 [_504_ _506_ _505_] _507_ d_lut_NAND3X1
ANOR2X1_45 [i_add_term2_28_ i_add_term1_28_] _501_ d_lut_NOR2X1
AAND2X2_45 [i_add_term2_28_ i_add_term1_28_] _502_ d_lut_AND2X2
AOAI21X1_114 [_501_ _502_ vdd] _503_ d_lut_OAI21X1
ANAND2X1_115 [_503_ _507_] _40__0_ d_lut_NAND2X1
AOAI21X1_115 [_504_ _501_ _506_] _42__1_ d_lut_OAI21X1
AINVX1_71 [_42__3_] _511_ d_lut_INVX1
AOR2X2_46 [i_add_term2_31_ i_add_term1_31_] _512_ d_lut_OR2X2
ANAND2X1_116 [i_add_term2_31_ i_add_term1_31_] _513_ d_lut_NAND2X1
ANAND3X1_46 [_511_ _513_ _512_] _514_ d_lut_NAND3X1
ANOR2X1_46 [i_add_term2_31_ i_add_term1_31_] _508_ d_lut_NOR2X1
AAND2X2_46 [i_add_term2_31_ i_add_term1_31_] _509_ d_lut_AND2X2
AOAI21X1_116 [_508_ _509_ _42__3_] _510_ d_lut_OAI21X1
ANAND2X1_117 [_510_ _514_] _40__3_ d_lut_NAND2X1
AOAI21X1_117 [_511_ _508_ _513_] _38_ d_lut_OAI21X1
AINVX1_72 [_42__1_] _518_ d_lut_INVX1
AOR2X2_47 [i_add_term2_29_ i_add_term1_29_] _519_ d_lut_OR2X2
ANAND2X1_118 [i_add_term2_29_ i_add_term1_29_] _520_ d_lut_NAND2X1
ANAND3X1_47 [_518_ _520_ _519_] _521_ d_lut_NAND3X1
ANOR2X1_47 [i_add_term2_29_ i_add_term1_29_] _515_ d_lut_NOR2X1
AAND2X2_47 [i_add_term2_29_ i_add_term1_29_] _516_ d_lut_AND2X2
AOAI21X1_118 [_515_ _516_ _42__1_] _517_ d_lut_OAI21X1
ANAND2X1_119 [_517_ _521_] _40__1_ d_lut_NAND2X1
AOAI21X1_119 [_518_ _515_ _520_] _42__2_ d_lut_OAI21X1
AINVX1_73 [_42__2_] _525_ d_lut_INVX1
AOR2X2_48 [i_add_term2_30_ i_add_term1_30_] _526_ d_lut_OR2X2
ANAND2X1_120 [i_add_term2_30_ i_add_term1_30_] _527_ d_lut_NAND2X1
ANAND3X1_48 [_525_ _527_ _526_] _528_ d_lut_NAND3X1
ANOR2X1_48 [i_add_term2_30_ i_add_term1_30_] _522_ d_lut_NOR2X1
AAND2X2_48 [i_add_term2_30_ i_add_term1_30_] _523_ d_lut_AND2X2
AOAI21X1_120 [_522_ _523_ _42__2_] _524_ d_lut_OAI21X1
ANAND2X1_121 [_524_ _528_] _40__2_ d_lut_NAND2X1